data_H6_HECO_CHO_OH_H-H6_HPCO_NH2_H_H_H_H_H_H-HXL-AA

_audit_creation_date     2024-27-12
_audit_creation_method   pyCOFBuilder
_audit_author_name       'root'

_chemical_name_common                  'H6_HECO_CHO_OH_H-H6_HPCO_NH2_H_H_H_H_H_H-HXL-AA'
_cell_length_a                           38.413574
_cell_length_b                           38.413574
_cell_length_c                            7.200000
_cell_angle_alpha                        90.00
_cell_angle_beta                         90.00
_cell_angle_gamma                       120.00
_space_group_name_H-M_alt               'P 1'
_space_group_IT_number                  1

loop_
_symmetry_equiv_pos_as_xyz
   'x, y, z'

loop_
   _atom_site_label
   _atom_site_type_symbol
   _atom_site_fract_x
   _atom_site_fract_y
   _atom_site_fract_z
H1_H1_Q            H     0.166638161     0.227226148     0.250000000
H2_H2_Q            H     0.166638161     0.227226148     0.750000000
H3_H3_Q            H     0.060587987     0.833361839     0.250000000
H4_H4_Q            H     0.060587987     0.833361839     0.750000000
H5_H5_Q            H     0.227226148     0.060587987     0.250000000
H6_H6_Q            H     0.227226148     0.060587987     0.750000000
H7_H7_Q            H     0.833361839     0.772773852     0.250000000
H8_H8_Q            H     0.833361839     0.772773852     0.750000000
H9_H9_Q            H     0.772773852     0.939412013     0.250000000
H10_H10_Q          H     0.772773852     0.939412013     0.750000000
H11_H11_Q          H     0.939412013     0.166638161     0.250000000
H12_H12_Q          H     0.939412013     0.166638161     0.750000000
H13_H13_R          H     0.840760467     0.045118670     0.250000000
H14_H14_R          H     0.840760467     0.045118670     0.750000000
H15_H15_R          H     0.045118669     0.204358203     0.250000000
H16_H16_R          H     0.045118669     0.204358203     0.750000000
H17_H17_R          H     0.204358203     0.159239533     0.250000000
H18_H18_R          H     0.204358203     0.159239533     0.750000000
H19_H19_R          H     0.159239533     0.954881330     0.250000000
H20_H20_R          H     0.159239533     0.954881330     0.750000000
H21_H21_R          H     0.954881331     0.795641797     0.250000000
H22_H22_R          H     0.954881331     0.795641797     0.750000000
H23_H23_R          H     0.795641797     0.840760467     0.250000000
H24_H24_R          H     0.795641797     0.840760467     0.750000000
H25_H25_R          H     0.821591475     0.912590409     0.250000000
H26_H26_R          H     0.821591475     0.912590409     0.750000000
H27_H27_R          H     0.090998933     0.178408525     0.250000000
H28_H28_R          H     0.090998933     0.178408525     0.750000000
H29_H29_R          H     0.912590409     0.090998933     0.250000000
H30_H30_R          H     0.912590409     0.090998933     0.750000000
H31_H31_R          H     0.909001067     0.821591475     0.250000000
H32_H32_R          H     0.909001067     0.821591475     0.750000000
H33_H33_R          H     0.087409591     0.909001067     0.250000000
H34_H34_R          H     0.087409591     0.909001067     0.750000000
H35_H35_R          H     0.178408525     0.087409591     0.250000000
H36_H36_R          H     0.178408525     0.087409591     0.750000000
H37_H37_R          H     0.577446152     0.642254960     0.250000000
H38_H38_R          H     0.577446152     0.642254960     0.750000000
H39_H39_R          H     0.512541461     0.866121286     0.250000000
H40_H40_R          H     0.512541461     0.866121286     0.750000000
H41_H41_R          H     0.223770444     0.801216596     0.250000000
H42_H42_R          H     0.223770444     0.801216596     0.750000000
H43_H43_R          H     0.999904118     0.512445579     0.250000000
H44_H44_R          H     0.999904118     0.512445579     0.750000000
H45_H45_R          H     0.064808808     0.288579252     0.250000000
H46_H46_R          H     0.064808808     0.288579252     0.750000000
H47_H47_R          H     0.353579825     0.353483943     0.250000000
H48_H48_R          H     0.353579825     0.353483943     0.750000000
H49_H49_R          H     0.577459509     0.801190720     0.250000000
H50_H50_R          H     0.577459509     0.801190720     0.750000000
H51_H51_R          H     0.353619058     0.866134643     0.250000000
H52_H52_R          H     0.353619058     0.866134643     0.750000000
H53_H53_R          H     0.064834684     0.642294193     0.250000000
H54_H54_R          H     0.064834684     0.642294193     0.750000000
H55_H55_R          H     0.999890761     0.353509818     0.250000000
H56_H56_R          H     0.999890761     0.353509818     0.750000000
H57_H57_R          H     0.223731211     0.288565895     0.250000000
H58_H58_R          H     0.223731211     0.288565895     0.750000000
H59_H59_R          H     0.512515585     0.512406346     0.250000000
H60_H60_R          H     0.512515585     0.512406346     0.750000000
H61_H61_R          H     0.512527097     0.642263484     0.250000000
H62_H62_R          H     0.512527097     0.642263484     0.750000000
H63_H63_R          H     0.447613883     0.801202232     0.250000000
H64_H64_R          H     0.447613883     0.801202232     0.750000000
H65_H65_R          H     0.223761920     0.736289017     0.250000000
H66_H66_R          H     0.223761920     0.736289017     0.750000000
H67_H67_R          H     0.064823172     0.512437054     0.250000000
H68_H68_R          H     0.064823172     0.512437054     0.750000000
H69_H69_R          H     0.129736387     0.353498306     0.250000000
H70_H70_R          H     0.129736387     0.353498306     0.750000000
H71_H71_R          H     0.353588349     0.418411521     0.250000000
H72_H72_R          H     0.353588349     0.418411521     0.750000000
H73_H73_R          H     0.223732396     0.353506263     0.250000000
H74_H74_R          H     0.223732396     0.353506263     0.750000000
H75_H75_R          H     0.447576402     0.512407530     0.250000000
H76_H76_R          H     0.447576402     0.512407530     0.750000000
H77_H77_R          H     0.512519141     0.736251536     0.250000000
H78_H78_R          H     0.512519141     0.736251536     0.750000000
H79_H79_R          H     0.353617874     0.801194275     0.250000000
H80_H80_R          H     0.353617874     0.801194275     0.750000000
H81_H81_R          H     0.129773867     0.642293008     0.250000000
H82_H82_R          H     0.129773867     0.642293008     0.750000000
H83_H83_R          H     0.064831129     0.418449002     0.250000000
H84_H84_R          H     0.064831129     0.418449002     0.750000000
H85_H85_R          H     0.112240594     0.512094698     0.250000000
H86_H86_R          H     0.112240594     0.512094698     0.750000000
H87_H87_R          H     0.399854105     0.753784810     0.250000000
H88_H88_R          H     0.399854105     0.753784810     0.750000000
H89_H89_R          H     0.223419564     0.688529239     0.250000000
H90_H90_R          H     0.223419564     0.688529239     0.750000000
H91_H91_R          H     0.177496164     0.400915728     0.250000000
H92_H92_R          H     0.177496164     0.400915728     0.750000000
H93_H93_R          H     0.353930705     0.466171299     0.250000000
H94_H94_R          H     0.353930705     0.466171299     0.750000000
H95_H95_R          H     0.465109676     0.642605840     0.250000000
H96_H96_R          H     0.465109676     0.642605840     0.750000000
H97_H97_R          H     0.177514996     0.642628465     0.250000000
H98_H98_R          H     0.177514996     0.642628465     0.750000000
H99_H99_R          H     0.353953331     0.753788604     0.250000000
H100_H100_R        H     0.353953331     0.753788604     0.750000000
H101_H101_R        H     0.465113469     0.688510408     0.250000000
H102_H102_R        H     0.465113469     0.688510408     0.750000000
H103_H103_R        H     0.399835273     0.512072073     0.250000000
H104_H104_R        H     0.399835273     0.512072073     0.750000000
H105_H105_R        H     0.223396939     0.400911935     0.250000000
H106_H106_R        H     0.223396939     0.400911935     0.750000000
H107_H107_R        H     0.112236800     0.466190131     0.250000000
H108_H108_R        H     0.112236800     0.466190131     0.750000000
C109_C109_C1       C     0.967472270     0.961821867     0.250000000
C110_C110_C1       C     0.967472270     0.961821867     0.750000000
C111_C111_C1       C     0.005650403     0.967472270     0.250000000
C112_C112_C1       C     0.005650403     0.967472270     0.750000000
C113_C113_C1       C     0.038178133     0.005650403     0.250000000
C114_C114_C1       C     0.038178133     0.005650403     0.750000000
C115_C115_C1       C     0.032527730     0.038178133     0.250000000
C116_C116_C1       C     0.032527730     0.038178133     0.750000000
C117_C117_C1       C     0.994349597     0.032527730     0.250000000
C118_C118_C1       C     0.994349597     0.032527730     0.750000000
C119_C119_C1       C     0.961821867     0.994349597     0.250000000
C120_C120_C1       C     0.961821867     0.994349597     0.750000000
C121_C121_C1       C     0.068367257     0.080229199     0.250000000
C122_C122_C1       C     0.068367257     0.080229199     0.750000000
C123_C123_C1       C     0.107361710     0.085319384     0.250000000
C124_C124_C1       C     0.107361710     0.085319384     0.750000000
C125_C125_C1       C     0.061867798     0.113229971     0.250000000
C126_C126_C1       C     0.061867798     0.113229971     0.750000000
C127_C127_C1       C     0.140433750     0.124484820     0.250000000
C128_C128_C1       C     0.140433750     0.124484820     0.750000000
C129_C129_C1       C     0.095316387     0.152197391     0.250000000
C130_C130_C1       C     0.095316387     0.152197391     0.750000000
C131_C131_C1       C     0.134387306     0.157703320     0.250000000
C132_C132_C1       C     0.134387306     0.157703320     0.750000000
C133_C133_C1       C     0.988138058     0.068367257     0.250000000
C134_C134_C1       C     0.988138058     0.068367257     0.750000000
C135_C135_C1       C     0.948637827     0.061867798     0.250000000
C136_C136_C1       C     0.948637827     0.061867798     0.750000000
C137_C137_C1       C     0.022042326     0.107361710     0.250000000
C138_C138_C1       C     0.022042326     0.107361710     0.750000000
C139_C139_C1       C     0.943118996     0.095316387     0.250000000
C140_C140_C1       C     0.943118996     0.095316387     0.750000000
C141_C141_C1       C     0.015948929     0.140433750     0.250000000
C142_C142_C1       C     0.015948929     0.140433750     0.750000000
C143_C143_C1       C     0.976683986     0.134387306     0.250000000
C144_C144_C1       C     0.976683986     0.134387306     0.750000000
C145_C145_C1       C     0.919770801     0.988138058     0.250000000
C146_C146_C1       C     0.919770801     0.988138058     0.750000000
C147_C147_C1       C     0.914680616     0.022042326     0.250000000
C148_C148_C1       C     0.914680616     0.022042326     0.750000000
C149_C149_C1       C     0.886770029     0.948637827     0.250000000
C150_C150_C1       C     0.886770029     0.948637827     0.750000000
C151_C151_C1       C     0.875515180     0.015948930     0.250000000
C152_C152_C1       C     0.875515180     0.015948930     0.750000000
C153_C153_C1       C     0.847802609     0.943118996     0.250000000
C154_C154_C1       C     0.847802609     0.943118996     0.750000000
C155_C155_C1       C     0.842296680     0.976683986     0.250000000
C156_C156_C1       C     0.842296680     0.976683986     0.750000000
C157_C157_C1       C     0.931632743     0.919770801     0.250000000
C158_C158_C1       C     0.931632743     0.919770801     0.750000000
C159_C159_C1       C     0.892638290     0.914680616     0.250000000
C160_C160_C1       C     0.892638290     0.914680616     0.750000000
C161_C161_C1       C     0.938132202     0.886770029     0.250000000
C162_C162_C1       C     0.938132202     0.886770029     0.750000000
C163_C163_C1       C     0.859566250     0.875515180     0.250000000
C164_C164_C1       C     0.859566250     0.875515180     0.750000000
C165_C165_C1       C     0.904683613     0.847802609     0.250000000
C166_C166_C1       C     0.904683613     0.847802609     0.750000000
C167_C167_C1       C     0.865612694     0.842296680     0.250000000
C168_C168_C1       C     0.865612694     0.842296680     0.750000000
C169_C169_C1       C     0.011861942     0.931632743     0.250000000
C170_C170_C1       C     0.011861942     0.931632743     0.750000000
C171_C171_C1       C     0.977957674     0.892638290     0.250000000
C172_C172_C1       C     0.977957674     0.892638290     0.750000000
C173_C173_C1       C     0.051362173     0.938132202     0.250000000
C174_C174_C1       C     0.051362173     0.938132202     0.750000000
C175_C175_C1       C     0.984051071     0.859566250     0.250000000
C176_C176_C1       C     0.984051071     0.859566250     0.750000000
C177_C177_C1       C     0.056881004     0.904683613     0.250000000
C178_C178_C1       C     0.056881004     0.904683613     0.750000000
C179_C179_C1       C     0.023316014     0.865612694     0.250000000
C180_C180_C1       C     0.023316014     0.865612694     0.750000000
C181_C181_C1       C     0.080229199     0.011861942     0.250000000
C182_C182_C1       C     0.080229199     0.011861942     0.750000000
C183_C183_C1       C     0.085319384     0.977957674     0.250000000
C184_C184_C1       C     0.085319384     0.977957674     0.750000000
C185_C185_C1       C     0.113229971     0.051362173     0.250000000
C186_C186_C1       C     0.113229971     0.051362173     0.750000000
C187_C187_C1       C     0.124484820     0.984051070     0.250000000
C188_C188_C1       C     0.124484820     0.984051070     0.750000000
C189_C189_C1       C     0.152197391     0.056881004     0.250000000
C190_C190_C1       C     0.152197391     0.056881004     0.750000000
C191_C191_C1       C     0.157703320     0.023316014     0.250000000
C192_C192_C1       C     0.157703320     0.023316014     0.750000000
C193_C193_Q        C     0.171191689     0.200865207     0.250000000
C194_C194_Q        C     0.171191689     0.200865207     0.750000000
C195_C195_Q        C     0.029673518     0.828808311     0.250000000
C196_C196_Q        C     0.029673518     0.828808311     0.750000000
C197_C197_Q        C     0.200865207     0.029673518     0.250000000
C198_C198_Q        C     0.200865207     0.029673518     0.750000000
C199_C199_Q        C     0.828808311     0.799134793     0.250000000
C200_C200_Q        C     0.828808311     0.799134793     0.750000000
C201_C201_Q        C     0.799134793     0.970326482     0.250000000
C202_C202_Q        C     0.799134793     0.970326482     0.750000000
C203_C203_Q        C     0.970326482     0.171191689     0.250000000
C204_C204_Q        C     0.970326482     0.171191689     0.750000000
C205_C205_C2       C     0.252966703     0.541643718     0.250000000
C206_C206_C2       C     0.252966703     0.541643718     0.750000000
C207_C207_C2       C     0.288673255     0.541641838     0.250000000
C208_C208_C2       C     0.288673255     0.541641838     0.750000000
C209_C209_C2       C     0.324381686     0.577348389     0.250000000
C210_C210_C2       C     0.324381686     0.577348389     0.750000000
C211_C211_C2       C     0.324383566     0.613056820     0.250000000
C212_C212_C2       C     0.324383566     0.613056820     0.750000000
C213_C213_C2       C     0.288677014     0.613058700     0.250000000
C214_C214_C2       C     0.288677014     0.613058700     0.750000000
C215_C215_C2       C     0.252968583     0.577352149     0.250000000
C216_C216_C2       C     0.252968583     0.577352149     0.750000000
C217_C217_C2       C     0.363698978     0.652367431     0.250000000
C218_C218_C2       C     0.363698978     0.652367431     0.750000000
C219_C219_C2       C     0.400031403     0.651654125     0.250000000
C220_C220_C2       C     0.400031403     0.651654125     0.750000000
C221_C221_C2       C     0.362991345     0.688702775     0.250000000
C222_C222_C2       C     0.362991345     0.688702775     0.750000000
C223_C223_C2       C     0.436394295     0.688297988     0.250000000
C224_C224_C2       C     0.436394295     0.688297988     0.750000000
C225_C225_C2       C     0.399637997     0.725062812     0.250000000
C226_C226_C2       C     0.399637997     0.725062812     0.750000000
C227_C227_C2       C     0.436126698     0.724789552     0.250000000
C228_C228_C2       C     0.436126698     0.724789552     0.750000000
C229_C229_C2       C     0.288681816     0.652374113     0.250000000
C230_C230_C2       C     0.288681816     0.652374113     0.750000000
C231_C231_C2       C     0.251638840     0.651666480     0.250000000
C232_C232_C2       C     0.251638840     0.651666480     0.750000000
C233_C233_C2       C     0.325727546     0.688706537     0.250000000
C234_C234_C2       C     0.325727546     0.688706537     0.750000000
C235_C235_C2       C     0.251925455     0.688313132     0.250000000
C236_C236_C2       C     0.251925455     0.688313132     0.750000000
C237_C237_C2       C     0.325446576     0.725069429     0.250000000
C238_C238_C2       C     0.325446576     0.725069429     0.750000000
C239_C239_C2       C     0.288687415     0.724801832     0.250000000
C240_C240_C2       C     0.288687415     0.724801832     0.750000000
C241_C241_C2       C     0.213657972     0.577356950     0.250000000
C242_C242_C2       C     0.213657972     0.577356950     0.750000000
C243_C243_C2       C     0.214371278     0.614402681     0.250000000
C244_C244_C2       C     0.214371278     0.614402681     0.750000000
C245_C245_C2       C     0.177322629     0.540313974     0.250000000
C246_C246_C2       C     0.177322629     0.540313974     0.750000000
C247_C247_C2       C     0.177727416     0.614121710     0.250000000
C248_C248_C2       C     0.177727416     0.614121710     0.750000000
C249_C249_C2       C     0.140962592     0.540600589     0.250000000
C250_C250_C2       C     0.140962592     0.540600589     0.750000000
C251_C251_C2       C     0.141235852     0.577362550     0.250000000
C252_C252_C2       C     0.141235852     0.577362550     0.750000000
C253_C253_C2       C     0.213651291     0.502333107     0.250000000
C254_C254_C2       C     0.213651291     0.502333107     0.750000000
C255_C255_C2       C     0.177318867     0.503046413     0.250000000
C256_C256_C2       C     0.177318867     0.503046413     0.750000000
C257_C257_C2       C     0.214358924     0.465997763     0.250000000
C258_C258_C2       C     0.214358924     0.465997763     0.750000000
C259_C259_C2       C     0.140955975     0.466402550     0.250000000
C260_C260_C2       C     0.140955975     0.466402550     0.750000000
C261_C261_C2       C     0.177712272     0.429637727     0.250000000
C262_C262_C2       C     0.177712272     0.429637727     0.750000000
C263_C263_C2       C     0.141223571     0.429910987     0.250000000
C264_C264_C2       C     0.141223571     0.429910987     0.750000000
C265_C265_C2       C     0.288668453     0.502326426     0.250000000
C266_C266_C2       C     0.288668453     0.502326426     0.750000000
C267_C267_C2       C     0.251622723     0.465994001     0.250000000
C268_C268_C2       C     0.251622723     0.465994001     0.750000000
C269_C269_C2       C     0.325711430     0.503034058     0.250000000
C270_C270_C2       C     0.325711430     0.503034058     0.750000000
C271_C271_C2       C     0.251903694     0.429631109     0.250000000
C272_C272_C2       C     0.251903694     0.429631109     0.750000000
C273_C273_C2       C     0.325424814     0.466387406     0.250000000
C274_C274_C2       C     0.325424814     0.466387406     0.750000000
C275_C275_C2       C     0.288662854     0.429898706     0.250000000
C276_C276_C2       C     0.288662854     0.429898706     0.750000000
C277_C277_C2       C     0.363692297     0.577343588     0.250000000
C278_C278_C2       C     0.363692297     0.577343588     0.750000000
C279_C279_C2       C     0.362978991     0.540297857     0.250000000
C280_C280_C2       C     0.362978991     0.540297857     0.750000000
C281_C281_C2       C     0.400027641     0.614386564     0.250000000
C282_C282_C2       C     0.400027641     0.614386564     0.750000000
C283_C283_C2       C     0.399622854     0.540578828     0.250000000
C284_C284_C2       C     0.399622854     0.540578828     0.750000000
C285_C285_C2       C     0.436387677     0.614099949     0.250000000
C286_C286_C2       C     0.436387677     0.614099949     0.750000000
C287_C287_C2       C     0.436114417     0.577337988     0.250000000
C288_C288_C2       C     0.436114417     0.577337988     0.750000000
C289_C289_C2       C     0.101148711     0.577364980     0.250000000
C290_C290_C2       C     0.101148711     0.577364980     0.750000000
C291_C291_C2       C     0.101153551     0.613686853     0.250000000
C292_C292_C2       C     0.101153551     0.613686853     0.750000000
C293_C293_C2       C     0.064834889     0.541057126     0.250000000
C294_C294_C2       C     0.064834889     0.541057126     0.750000000
C295_C295_C2       C     0.064851343     0.613698012     0.250000000
C296_C296_C2       C     0.064851343     0.613698012     0.750000000
C297_C297_C2       C     0.028518988     0.541063079     0.250000000
C298_C298_C2       C     0.028518988     0.541063079     0.750000000
C299_C299_C2       C     0.028521490     0.577375063     0.250000000
C300_C300_C2       C     0.028521490     0.577375063     0.750000000
C301_C301_C2       C     0.476216269     0.764876693     0.250000000
C302_C302_C2       C     0.476216269     0.764876693     0.750000000
C303_C303_C2       C     0.476222238     0.801190515     0.250000000
C304_C304_C2       C     0.476222238     0.801190515     0.750000000
C305_C305_C2       C     0.512533302     0.764871853     0.250000000
C306_C306_C2       C     0.512533302     0.764871853     0.750000000
C307_C307_C2       C     0.512544091     0.837506416     0.250000000
C308_C308_C2       C     0.512544091     0.837506416     0.750000000
C309_C309_C2       C     0.548846669     0.801174061     0.250000000
C310_C310_C2       C     0.548846669     0.801174061     0.750000000
C311_C311_C2       C     0.548853573     0.837503914     0.250000000
C312_C312_C2       C     0.548853573     0.837503914     0.750000000
C313_C313_C2       C     0.476201559     0.577335558     0.250000000
C314_C314_C2       C     0.476201559     0.577335558     0.750000000
C315_C315_C2       C     0.476196718     0.541013686     0.250000000
C316_C316_C2       C     0.476196718     0.541013686     0.750000000
C317_C317_C2       C     0.512515381     0.613643412     0.250000000
C318_C318_C2       C     0.512515381     0.613643412     0.750000000
C319_C319_C2       C     0.512498927     0.541002527     0.250000000
C320_C320_C2       C     0.512498927     0.541002527     0.750000000
C321_C321_C2       C     0.548831281     0.613637460     0.250000000
C322_C322_C2       C     0.548831281     0.613637460     0.750000000
C323_C323_C2       C     0.548828779     0.577325476     0.250000000
C324_C324_C2       C     0.548828779     0.577325476     0.750000000
C325_C325_C2       C     0.288660424     0.389809134     0.250000000
C326_C326_C2       C     0.288660424     0.389809134     0.750000000
C327_C327_C2       C     0.252338551     0.353492102     0.250000000
C328_C328_C2       C     0.252338551     0.353492102     0.750000000
C329_C329_C2       C     0.324968278     0.389803166     0.250000000
C330_C330_C2       C     0.324968278     0.389803166     0.750000000
C331_C331_C2       C     0.252327392     0.317178735     0.250000000
C332_C332_C2       C     0.252327392     0.317178735     0.750000000
C333_C333_C2       C     0.324962325     0.353481313     0.250000000
C334_C334_C2       C     0.324962325     0.353481313     0.750000000
C335_C335_C2       C     0.288650341     0.317171831     0.250000000
C336_C336_C2       C     0.288650341     0.317171831     0.750000000
C337_C337_C2       C     0.101134000     0.389823845     0.250000000
C338_C338_C2       C     0.101134000     0.389823845     0.750000000
C339_C339_C2       C     0.064816967     0.389828686     0.250000000
C340_C340_C2       C     0.064816967     0.389828686     0.750000000
C341_C341_C2       C     0.101128032     0.353510023     0.250000000
C342_C342_C2       C     0.101128032     0.353510023     0.750000000
C343_C343_C2       C     0.028503600     0.353526477     0.250000000
C344_C344_C2       C     0.028503600     0.353526477     0.750000000
C345_C345_C2       C     0.064806178     0.317194122     0.250000000
C346_C346_C2       C     0.064806178     0.317194122     0.750000000
C347_C347_C2       C     0.028496696     0.317196624     0.250000000
C348_C348_C2       C     0.028496696     0.317196624     0.750000000
C349_C349_C2       C     0.288689845     0.764891404     0.250000000
C350_C350_C2       C     0.288689845     0.764891404     0.750000000
C351_C351_C2       C     0.325011718     0.801208436     0.250000000
C352_C352_C2       C     0.325011718     0.801208436     0.750000000
C353_C353_C2       C     0.252381992     0.764897372     0.250000000
C354_C354_C2       C     0.252381992     0.764897372     0.750000000
C355_C355_C2       C     0.325022877     0.837521804     0.250000000
C356_C356_C2       C     0.325022877     0.837521804     0.750000000
C357_C357_C2       C     0.252387944     0.801219225     0.250000000
C358_C358_C2       C     0.252387944     0.801219225     0.750000000
C359_C359_C2       C     0.288699928     0.837528707     0.250000000
C360_C360_C2       C     0.288699928     0.837528707     0.750000000
N361_N361_Q        N     0.205990941     0.205990941     0.250000000
N362_N362_Q        N     0.205990941     0.205990941     0.750000000
N363_N363_Q        N     0.000000000     0.794009059     0.250000000
N364_N364_Q        N     0.000000000     0.794009059     0.750000000
N365_N365_Q        N     0.205990941     0.000000000     0.250000000
N366_N366_Q        N     0.205990941     0.000000000     0.750000000
N367_N367_Q        N     0.794009059     0.794009059     0.250000000
N368_N368_Q        N     0.794009059     0.794009059     0.750000000
N369_N369_Q        N     0.794009059     1.000000000     0.250000000
N370_N370_Q        N     0.794009059     1.000000000     0.750000000
N371_N371_Q        N     1.000000000     0.205990941     0.250000000
N372_N372_Q        N     1.000000000     0.205990941     0.750000000
O373_O373_R        O     0.869334398     0.049699715     0.250000000
O374_O374_R        O     0.869334398     0.049699715     0.750000000
O375_O375_R        O     0.049699715     0.180365317     0.250000000
O376_O376_R        O     0.049699715     0.180365317     0.750000000
O377_O377_R        O     0.180365317     0.130665602     0.250000000
O378_O378_R        O     0.180365317     0.130665602     0.750000000
O379_O379_R        O     0.130665602     0.950300285     0.250000000
O380_O380_R        O     0.130665602     0.950300285     0.750000000
O381_O381_R        O     0.950300285     0.819634683     0.250000000
O382_O382_R        O     0.950300285     0.819634683     0.750000000
O383_O383_R        O     0.819634683     0.869334398     0.250000000
O384_O384_R        O     0.819634683     0.869334398     0.750000000

loop_
_geom_bond_atom_site_label_1
_geom_bond_atom_site_label_2
_geom_bond_distance
H1_Q       C193_Q     1.11046
H2_Q       C194_Q     1.11046
H3_Q       C195_Q     1.11046
H4_Q       C196_Q     1.11046
H5_Q       C197_Q     1.11046
H6_Q       C198_Q     1.11046
H7_Q       C199_Q     1.11046
H8_Q       C200_Q     1.11046
H9_Q       C201_Q     1.11046
H10_Q      C202_Q     1.11046
H11_Q      C203_Q     1.11046
H12_Q      C204_Q     1.11046
H13_R      O373_R     1.02108
H14_R      O374_R     1.02108
H15_R      O375_R     1.02108
H16_R      O376_R     1.02108
H17_R      O377_R     1.02108
H18_R      O378_R     1.02108
H19_R      O379_R     1.02108
H20_R      O380_R     1.02108
H21_R      O381_R     1.02108
H22_R      O382_R     1.02108
H23_R      O383_R     1.02108
H24_R      O384_R     1.02108
H25_R      C153_C1    1.09921
H26_R      C154_C1    1.09921
H27_R      C129_C1    1.09921
H28_R      C130_C1    1.09921
H29_R      C139_C1    1.09921
H30_R      C140_C1    1.09921
H31_R      C165_C1    1.09921
H32_R      C166_C1    1.09921
H33_R      C177_C1    1.09921
H34_R      C178_C1    1.09921
H35_R      C189_C1    1.09921
H36_R      C190_C1    1.09921
H37_R      C321_C2    1.09925
H38_R      C322_C2    1.09925
H39_R      C307_C2    1.09925
H40_R      C308_C2    1.09925
H41_R      C357_C2    1.09925
H42_R      C358_C2    1.09925
H43_R      C297_C2    1.09925
H44_R      C298_C2    1.09925
H45_R      C345_C2    1.09925
H46_R      C346_C2    1.09925
H47_R      C333_C2    1.09925
H48_R      C334_C2    1.09925
H49_R      C309_C2    1.09880
H50_R      C310_C2    1.09880
H51_R      C355_C2    1.09880
H52_R      C356_C2    1.09880
H53_R      C295_C2    1.09880
H54_R      C296_C2    1.09880
H55_R      C343_C2    1.09880
H56_R      C344_C2    1.09880
H57_R      C331_C2    1.09880
H58_R      C332_C2    1.09880
H59_R      C319_C2    1.09880
H60_R      C320_C2    1.09880
H61_R      C317_C2    1.09917
H62_R      C318_C2    1.09917
H63_R      C303_C2    1.09917
H64_R      C304_C2    1.09917
H65_R      C353_C2    1.09917
H66_R      C354_C2    1.09917
H67_R      C293_C2    1.09917
H68_R      C294_C2    1.09917
H69_R      C341_C2    1.09917
H70_R      C342_C2    1.09917
H71_R      C329_C2    1.09917
H72_R      C330_C2    1.09917
H73_R      C327_C2    1.09914
H74_R      C328_C2    1.09914
H75_R      C315_C2    1.09914
H76_R      C316_C2    1.09914
H77_R      C305_C2    1.09914
H78_R      C306_C2    1.09914
H79_R      C351_C2    1.09914
H80_R      C352_C2    1.09914
H81_R      C291_C2    1.09914
H82_R      C292_C2    1.09914
H83_R      C339_C2    1.09914
H84_R      C340_C2    1.09914
H85_R      C249_C2    1.09919
H86_R      C250_C2    1.09919
H87_R      C225_C2    1.09919
H88_R      C226_C2    1.09919
H89_R      C235_C2    1.09919
H90_R      C236_C2    1.09919
H91_R      C261_C2    1.09919
H92_R      C262_C2    1.09919
H93_R      C273_C2    1.09919
H94_R      C274_C2    1.09919
H95_R      C285_C2    1.09919
H96_R      C286_C2    1.09919
H97_R      C247_C2    1.09915
H98_R      C248_C2    1.09915
H99_R      C237_C2    1.09915
H100_R     C238_C2    1.09915
H101_R     C223_C2    1.09915
H102_R     C224_C2    1.09915
H103_R     C283_C2    1.09915
H104_R     C284_C2    1.09915
H105_R     C271_C2    1.09915
H106_R     C272_C2    1.09915
H107_R     C259_C2    1.09915
H108_R     C260_C2    1.09915
C109_C1    C111_C1    1.37098
C109_C1    C157_C1    1.51023
C109_C1    C119_C1    1.37098
C110_C1    C112_C1    1.37098
C110_C1    C158_C1    1.51023
C110_C1    C120_C1    1.37098
C111_C1    C109_C1    1.37098
C111_C1    C113_C1    1.37098
C111_C1    C169_C1    1.51023
C112_C1    C110_C1    1.37098
C112_C1    C114_C1    1.37098
C112_C1    C170_C1    1.51023
C113_C1    C111_C1    1.37098
C113_C1    C115_C1    1.37098
C113_C1    C181_C1    1.51023
C114_C1    C112_C1    1.37098
C114_C1    C116_C1    1.37098
C114_C1    C182_C1    1.51023
C115_C1    C121_C1    1.51023
C115_C1    C113_C1    1.37098
C115_C1    C117_C1    1.37098
C116_C1    C122_C1    1.51023
C116_C1    C114_C1    1.37098
C116_C1    C118_C1    1.37098
C117_C1    C119_C1    1.37098
C117_C1    C115_C1    1.37098
C117_C1    C133_C1    1.51023
C118_C1    C120_C1    1.37098
C118_C1    C116_C1    1.37098
C118_C1    C134_C1    1.51023
C119_C1    C145_C1    1.51023
C119_C1    C117_C1    1.37098
C119_C1    C109_C1    1.37098
C120_C1    C146_C1    1.51023
C120_C1    C118_C1    1.37098
C120_C1    C110_C1    1.37098
C121_C1    C125_C1    1.40920
C121_C1    C115_C1    1.51023
C121_C1    C123_C1    1.41035
C122_C1    C126_C1    1.40920
C122_C1    C116_C1    1.51023
C122_C1    C124_C1    1.41035
C123_C1    C121_C1    1.41035
C123_C1    C185_C1    1.43051
C123_C1    C127_C1    1.40218
C124_C1    C122_C1    1.41035
C124_C1    C186_C1    1.43051
C124_C1    C128_C1    1.40218
C125_C1    C137_C1    1.43051
C125_C1    C121_C1    1.40920
C125_C1    C129_C1    1.40294
C126_C1    C138_C1    1.43051
C126_C1    C122_C1    1.40920
C126_C1    C130_C1    1.40294
C127_C1    O377_R     1.43006
C127_C1    C123_C1    1.40218
C127_C1    C131_C1    1.40663
C128_C1    O378_R     1.43006
C128_C1    C124_C1    1.40218
C128_C1    C132_C1    1.40663
C129_C1    C125_C1    1.40294
C129_C1    H27_R      1.09921
C129_C1    C131_C1    1.40708
C130_C1    C126_C1    1.40294
C130_C1    H28_R      1.09921
C130_C1    C132_C1    1.40708
C131_C1    C129_C1    1.40708
C131_C1    C127_C1    1.40663
C131_C1    C193_Q     1.55039
C132_C1    C130_C1    1.40708
C132_C1    C128_C1    1.40663
C132_C1    C194_Q     1.55039
C133_C1    C135_C1    1.40920
C133_C1    C137_C1    1.41035
C133_C1    C117_C1    1.51023
C134_C1    C136_C1    1.40920
C134_C1    C138_C1    1.41035
C134_C1    C118_C1    1.51023
C135_C1    C147_C1    1.43051
C135_C1    C139_C1    1.40294
C135_C1    C133_C1    1.40920
C136_C1    C148_C1    1.43051
C136_C1    C140_C1    1.40294
C136_C1    C134_C1    1.40920
C137_C1    C141_C1    1.40218
C137_C1    C125_C1    1.43051
C137_C1    C133_C1    1.41035
C138_C1    C142_C1    1.40218
C138_C1    C126_C1    1.43051
C138_C1    C134_C1    1.41035
C139_C1    C143_C1    1.40708
C139_C1    C135_C1    1.40294
C139_C1    H29_R      1.09921
C140_C1    C144_C1    1.40708
C140_C1    C136_C1    1.40294
C140_C1    H30_R      1.09921
C141_C1    C143_C1    1.40663
C141_C1    C137_C1    1.40218
C141_C1    O375_R     1.43006
C142_C1    C144_C1    1.40663
C142_C1    C138_C1    1.40218
C142_C1    O376_R     1.43006
C143_C1    C141_C1    1.40663
C143_C1    C139_C1    1.40708
C143_C1    C203_Q     1.55039
C144_C1    C142_C1    1.40663
C144_C1    C140_C1    1.40708
C144_C1    C204_Q     1.55039
C145_C1    C147_C1    1.41035
C145_C1    C149_C1    1.40920
C145_C1    C119_C1    1.51023
C146_C1    C148_C1    1.41035
C146_C1    C150_C1    1.40920
C146_C1    C120_C1    1.51023
C147_C1    C145_C1    1.41035
C147_C1    C151_C1    1.40218
C147_C1    C135_C1    1.43051
C148_C1    C146_C1    1.41035
C148_C1    C152_C1    1.40218
C148_C1    C136_C1    1.43051
C149_C1    C153_C1    1.40294
C149_C1    C145_C1    1.40920
C149_C1    C159_C1    1.43051
C150_C1    C154_C1    1.40294
C150_C1    C146_C1    1.40920
C150_C1    C160_C1    1.43051
C151_C1    C155_C1    1.40663
C151_C1    O373_R     1.43006
C151_C1    C147_C1    1.40218
C152_C1    C156_C1    1.40663
C152_C1    O374_R     1.43006
C152_C1    C148_C1    1.40218
C153_C1    C155_C1    1.40708
C153_C1    C149_C1    1.40294
C153_C1    H25_R      1.09921
C154_C1    C156_C1    1.40708
C154_C1    C150_C1    1.40294
C154_C1    H26_R      1.09921
C155_C1    C151_C1    1.40663
C155_C1    C201_Q     1.55039
C155_C1    C153_C1    1.40708
C156_C1    C152_C1    1.40663
C156_C1    C202_Q     1.55039
C156_C1    C154_C1    1.40708
C157_C1    C161_C1    1.40920
C157_C1    C159_C1    1.41035
C157_C1    C109_C1    1.51023
C158_C1    C162_C1    1.40920
C158_C1    C160_C1    1.41035
C158_C1    C110_C1    1.51023
C159_C1    C163_C1    1.40218
C159_C1    C149_C1    1.43051
C159_C1    C157_C1    1.41035
C160_C1    C164_C1    1.40218
C160_C1    C150_C1    1.43051
C160_C1    C158_C1    1.41035
C161_C1    C171_C1    1.43051
C161_C1    C165_C1    1.40294
C161_C1    C157_C1    1.40920
C162_C1    C172_C1    1.43051
C162_C1    C166_C1    1.40294
C162_C1    C158_C1    1.40920
C163_C1    O383_R     1.43006
C163_C1    C167_C1    1.40663
C163_C1    C159_C1    1.40218
C164_C1    O384_R     1.43006
C164_C1    C168_C1    1.40663
C164_C1    C160_C1    1.40218
C165_C1    C167_C1    1.40708
C165_C1    C161_C1    1.40294
C165_C1    H31_R      1.09921
C166_C1    C168_C1    1.40708
C166_C1    C162_C1    1.40294
C166_C1    H32_R      1.09921
C167_C1    C199_Q     1.55039
C167_C1    C163_C1    1.40663
C167_C1    C165_C1    1.40708
C168_C1    C200_Q     1.55039
C168_C1    C164_C1    1.40663
C168_C1    C166_C1    1.40708
C169_C1    C171_C1    1.41035
C169_C1    C173_C1    1.40920
C169_C1    C111_C1    1.51023
C170_C1    C172_C1    1.41035
C170_C1    C174_C1    1.40920
C170_C1    C112_C1    1.51023
C171_C1    C175_C1    1.40218
C171_C1    C161_C1    1.43051
C171_C1    C169_C1    1.41035
C172_C1    C176_C1    1.40218
C172_C1    C162_C1    1.43051
C172_C1    C170_C1    1.41035
C173_C1    C183_C1    1.43051
C173_C1    C177_C1    1.40294
C173_C1    C169_C1    1.40920
C174_C1    C184_C1    1.43051
C174_C1    C178_C1    1.40294
C174_C1    C170_C1    1.40920
C175_C1    O381_R     1.43006
C175_C1    C171_C1    1.40218
C175_C1    C179_C1    1.40663
C176_C1    O382_R     1.43006
C176_C1    C172_C1    1.40218
C176_C1    C180_C1    1.40663
C177_C1    C179_C1    1.40708
C177_C1    C173_C1    1.40294
C177_C1    H33_R      1.09921
C178_C1    C180_C1    1.40708
C178_C1    C174_C1    1.40294
C178_C1    H34_R      1.09921
C179_C1    C195_Q     1.55039
C179_C1    C175_C1    1.40663
C179_C1    C177_C1    1.40708
C180_C1    C196_Q     1.55039
C180_C1    C176_C1    1.40663
C180_C1    C178_C1    1.40708
C181_C1    C113_C1    1.51023
C181_C1    C183_C1    1.41035
C181_C1    C185_C1    1.40920
C182_C1    C114_C1    1.51023
C182_C1    C184_C1    1.41035
C182_C1    C186_C1    1.40920
C183_C1    C181_C1    1.41035
C183_C1    C187_C1    1.40218
C183_C1    C173_C1    1.43051
C184_C1    C182_C1    1.41035
C184_C1    C188_C1    1.40218
C184_C1    C174_C1    1.43051
C185_C1    C189_C1    1.40294
C185_C1    C181_C1    1.40920
C185_C1    C123_C1    1.43051
C186_C1    C190_C1    1.40294
C186_C1    C182_C1    1.40920
C186_C1    C124_C1    1.43051
C187_C1    C191_C1    1.40663
C187_C1    C183_C1    1.40218
C187_C1    O379_R     1.43006
C188_C1    C192_C1    1.40663
C188_C1    C184_C1    1.40218
C188_C1    O380_R     1.43006
C189_C1    C191_C1    1.40708
C189_C1    C185_C1    1.40294
C189_C1    H35_R      1.09921
C190_C1    C192_C1    1.40708
C190_C1    C186_C1    1.40294
C190_C1    H36_R      1.09921
C191_C1    C187_C1    1.40663
C191_C1    C189_C1    1.40708
C191_C1    C197_Q     1.55039
C192_C1    C188_C1    1.40663
C192_C1    C190_C1    1.40708
C192_C1    C198_Q     1.55039
C193_Q     N361_Q     1.25000
C193_Q     C131_C1    1.55039
C193_Q     H1_Q       1.11046
C194_Q     N362_Q     1.25000
C194_Q     C132_C1    1.55039
C194_Q     H2_Q       1.11046
C195_Q     N363_Q     1.25000
C195_Q     C179_C1    1.55039
C195_Q     H3_Q       1.11046
C196_Q     N364_Q     1.25000
C196_Q     C180_C1    1.55039
C196_Q     H4_Q       1.11046
C197_Q     C191_C1    1.55039
C197_Q     N365_Q     1.25000
C197_Q     H5_Q       1.11046
C198_Q     C192_C1    1.55039
C198_Q     N366_Q     1.25000
C198_Q     H6_Q       1.11046
C199_Q     N367_Q     1.25000
C199_Q     C167_C1    1.55039
C199_Q     H7_Q       1.11046
C200_Q     N368_Q     1.25000
C200_Q     C168_C1    1.55039
C200_Q     H8_Q       1.11046
C201_Q     N369_Q     1.25000
C201_Q     C155_C1    1.55039
C201_Q     H9_Q       1.11046
C202_Q     N370_Q     1.25000
C202_Q     C156_C1    1.55039
C202_Q     H10_Q      1.11046
C203_Q     C143_C1    1.55039
C203_Q     N371_Q     1.25000
C203_Q     H11_Q      1.11046
C204_Q     C144_C1    1.55039
C204_Q     N372_Q     1.25000
C204_Q     H12_Q      1.11046
C205_C2    C253_C2    1.51015
C205_C2    C215_C2    1.37165
C205_C2    C207_C2    1.37165
C206_C2    C254_C2    1.51015
C206_C2    C216_C2    1.37165
C206_C2    C208_C2    1.37165
C207_C2    C265_C2    1.51015
C207_C2    C209_C2    1.37165
C207_C2    C205_C2    1.37165
C208_C2    C266_C2    1.51015
C208_C2    C210_C2    1.37165
C208_C2    C206_C2    1.37165
C209_C2    C207_C2    1.37165
C209_C2    C211_C2    1.37165
C209_C2    C277_C2    1.51015
C210_C2    C208_C2    1.37165
C210_C2    C212_C2    1.37165
C210_C2    C278_C2    1.51015
C211_C2    C209_C2    1.37165
C211_C2    C217_C2    1.51015
C211_C2    C213_C2    1.37165
C212_C2    C210_C2    1.37165
C212_C2    C218_C2    1.51015
C212_C2    C214_C2    1.37165
C213_C2    C215_C2    1.37165
C213_C2    C229_C2    1.51015
C213_C2    C211_C2    1.37165
C214_C2    C216_C2    1.37165
C214_C2    C230_C2    1.51015
C214_C2    C212_C2    1.37165
C215_C2    C241_C2    1.51015
C215_C2    C205_C2    1.37165
C215_C2    C213_C2    1.37165
C216_C2    C242_C2    1.51015
C216_C2    C206_C2    1.37165
C216_C2    C214_C2    1.37165
C217_C2    C221_C2    1.40956
C217_C2    C211_C2    1.51015
C217_C2    C219_C2    1.40956
C218_C2    C222_C2    1.40956
C218_C2    C212_C2    1.51015
C218_C2    C220_C2    1.40956
C219_C2    C217_C2    1.40956
C219_C2    C281_C2    1.43151
C219_C2    C223_C2    1.40226
C220_C2    C218_C2    1.40956
C220_C2    C282_C2    1.43151
C220_C2    C224_C2    1.40226
C221_C2    C233_C2    1.43151
C221_C2    C225_C2    1.40226
C221_C2    C217_C2    1.40956
C222_C2    C234_C2    1.43151
C222_C2    C226_C2    1.40226
C222_C2    C218_C2    1.40956
C223_C2    C227_C2    1.40694
C223_C2    C219_C2    1.40226
C223_C2    H101_R     1.09915
C224_C2    C228_C2    1.40694
C224_C2    C220_C2    1.40226
C224_C2    H102_R     1.09915
C225_C2    C221_C2    1.40226
C225_C2    H87_R      1.09919
C225_C2    C227_C2    1.40694
C226_C2    C222_C2    1.40226
C226_C2    H88_R      1.09919
C226_C2    C228_C2    1.40694
C227_C2    C225_C2    1.40694
C227_C2    C223_C2    1.40694
C227_C2    C301_C2    1.53994
C228_C2    C226_C2    1.40694
C228_C2    C224_C2    1.40694
C228_C2    C302_C2    1.53994
C229_C2    C233_C2    1.40956
C229_C2    C231_C2    1.40956
C229_C2    C213_C2    1.51015
C230_C2    C234_C2    1.40956
C230_C2    C232_C2    1.40956
C230_C2    C214_C2    1.51015
C231_C2    C243_C2    1.43151
C231_C2    C235_C2    1.40226
C231_C2    C229_C2    1.40956
C232_C2    C244_C2    1.43151
C232_C2    C236_C2    1.40226
C232_C2    C230_C2    1.40956
C233_C2    C237_C2    1.40226
C233_C2    C229_C2    1.40956
C233_C2    C221_C2    1.43151
C234_C2    C238_C2    1.40226
C234_C2    C230_C2    1.40956
C234_C2    C222_C2    1.43151
C235_C2    H89_R      1.09919
C235_C2    C239_C2    1.40694
C235_C2    C231_C2    1.40226
C236_C2    H90_R      1.09919
C236_C2    C240_C2    1.40694
C236_C2    C232_C2    1.40226
C237_C2    C239_C2    1.40694
C237_C2    C233_C2    1.40226
C237_C2    H99_R      1.09915
C238_C2    C240_C2    1.40694
C238_C2    C234_C2    1.40226
C238_C2    H100_R     1.09915
C239_C2    C235_C2    1.40694
C239_C2    C349_C2    1.53994
C239_C2    C237_C2    1.40694
C240_C2    C236_C2    1.40694
C240_C2    C350_C2    1.53994
C240_C2    C238_C2    1.40694
C241_C2    C245_C2    1.40956
C241_C2    C243_C2    1.40956
C241_C2    C215_C2    1.51015
C242_C2    C246_C2    1.40956
C242_C2    C244_C2    1.40956
C242_C2    C216_C2    1.51015
C243_C2    C247_C2    1.40226
C243_C2    C241_C2    1.40956
C243_C2    C231_C2    1.43151
C244_C2    C248_C2    1.40226
C244_C2    C242_C2    1.40956
C244_C2    C232_C2    1.43151
C245_C2    C249_C2    1.40226
C245_C2    C255_C2    1.43151
C245_C2    C241_C2    1.40956
C246_C2    C250_C2    1.40226
C246_C2    C256_C2    1.43151
C246_C2    C242_C2    1.40956
C247_C2    C251_C2    1.40694
C247_C2    C243_C2    1.40226
C247_C2    H97_R      1.09915
C248_C2    C252_C2    1.40694
C248_C2    C244_C2    1.40226
C248_C2    H98_R      1.09915
C249_C2    C251_C2    1.40694
C249_C2    C245_C2    1.40226
C249_C2    H85_R      1.09919
C250_C2    C252_C2    1.40694
C250_C2    C246_C2    1.40226
C250_C2    H86_R      1.09919
C251_C2    C289_C2    1.53994
C251_C2    C249_C2    1.40694
C251_C2    C247_C2    1.40694
C252_C2    C290_C2    1.53994
C252_C2    C250_C2    1.40694
C252_C2    C248_C2    1.40694
C253_C2    C257_C2    1.40956
C253_C2    C255_C2    1.40956
C253_C2    C205_C2    1.51015
C254_C2    C258_C2    1.40956
C254_C2    C256_C2    1.40956
C254_C2    C206_C2    1.51015
C255_C2    C259_C2    1.40226
C255_C2    C245_C2    1.43151
C255_C2    C253_C2    1.40956
C256_C2    C260_C2    1.40226
C256_C2    C246_C2    1.43151
C256_C2    C254_C2    1.40956
C257_C2    C261_C2    1.40226
C257_C2    C267_C2    1.43151
C257_C2    C253_C2    1.40956
C258_C2    C262_C2    1.40226
C258_C2    C268_C2    1.43151
C258_C2    C254_C2    1.40956
C259_C2    H107_R     1.09915
C259_C2    C263_C2    1.40694
C259_C2    C255_C2    1.40226
C260_C2    H108_R     1.09915
C260_C2    C264_C2    1.40694
C260_C2    C256_C2    1.40226
C261_C2    C263_C2    1.40694
C261_C2    H91_R      1.09919
C261_C2    C257_C2    1.40226
C262_C2    C264_C2    1.40694
C262_C2    H92_R      1.09919
C262_C2    C258_C2    1.40226
C263_C2    C337_C2    1.53994
C263_C2    C259_C2    1.40694
C263_C2    C261_C2    1.40694
C264_C2    C338_C2    1.53994
C264_C2    C260_C2    1.40694
C264_C2    C262_C2    1.40694
C265_C2    C267_C2    1.40956
C265_C2    C207_C2    1.51015
C265_C2    C269_C2    1.40956
C266_C2    C268_C2    1.40956
C266_C2    C208_C2    1.51015
C266_C2    C270_C2    1.40956
C267_C2    C271_C2    1.40226
C267_C2    C265_C2    1.40956
C267_C2    C257_C2    1.43151
C268_C2    C272_C2    1.40226
C268_C2    C266_C2    1.40956
C268_C2    C258_C2    1.43151
C269_C2    C265_C2    1.40956
C269_C2    C279_C2    1.43151
C269_C2    C273_C2    1.40226
C270_C2    C266_C2    1.40956
C270_C2    C280_C2    1.43151
C270_C2    C274_C2    1.40226
C271_C2    H105_R     1.09915
C271_C2    C267_C2    1.40226
C271_C2    C275_C2    1.40694
C272_C2    H106_R     1.09915
C272_C2    C268_C2    1.40226
C272_C2    C276_C2    1.40694
C273_C2    C275_C2    1.40694
C273_C2    C269_C2    1.40226
C273_C2    H93_R      1.09919
C274_C2    C276_C2    1.40694
C274_C2    C270_C2    1.40226
C274_C2    H94_R      1.09919
C275_C2    C271_C2    1.40694
C275_C2    C325_C2    1.53994
C275_C2    C273_C2    1.40694
C276_C2    C272_C2    1.40694
C276_C2    C326_C2    1.53994
C276_C2    C274_C2    1.40694
C277_C2    C209_C2    1.51015
C277_C2    C279_C2    1.40956
C277_C2    C281_C2    1.40956
C278_C2    C210_C2    1.51015
C278_C2    C280_C2    1.40956
C278_C2    C282_C2    1.40956
C279_C2    C283_C2    1.40226
C279_C2    C277_C2    1.40956
C279_C2    C269_C2    1.43151
C280_C2    C284_C2    1.40226
C280_C2    C278_C2    1.40956
C280_C2    C270_C2    1.43151
C281_C2    C277_C2    1.40956
C281_C2    C285_C2    1.40226
C281_C2    C219_C2    1.43151
C282_C2    C278_C2    1.40956
C282_C2    C286_C2    1.40226
C282_C2    C220_C2    1.43151
C283_C2    C287_C2    1.40694
C283_C2    C279_C2    1.40226
C283_C2    H103_R     1.09915
C284_C2    C288_C2    1.40694
C284_C2    C280_C2    1.40226
C284_C2    H104_R     1.09915
C285_C2    C287_C2    1.40694
C285_C2    C281_C2    1.40226
C285_C2    H95_R      1.09919
C286_C2    C288_C2    1.40694
C286_C2    C282_C2    1.40226
C286_C2    H96_R      1.09919
C287_C2    C283_C2    1.40694
C287_C2    C285_C2    1.40694
C287_C2    C313_C2    1.53994
C288_C2    C284_C2    1.40694
C288_C2    C286_C2    1.40694
C288_C2    C314_C2    1.53994
C289_C2    C293_C2    1.39483
C289_C2    C251_C2    1.53994
C289_C2    C291_C2    1.39516
C290_C2    C294_C2    1.39483
C290_C2    C252_C2    1.53994
C290_C2    C292_C2    1.39516
C291_C2    C295_C2    1.39471
C291_C2    C289_C2    1.39516
C291_C2    H81_R      1.09914
C292_C2    C296_C2    1.39471
C292_C2    C290_C2    1.39516
C292_C2    H82_R      1.09914
C293_C2    C297_C2    1.39514
C293_C2    C289_C2    1.39483
C293_C2    H67_R      1.09917
C294_C2    C298_C2    1.39514
C294_C2    C290_C2    1.39483
C294_C2    H68_R      1.09917
C295_C2    C299_C2    1.39543
C295_C2    H53_R      1.09880
C295_C2    C291_C2    1.39471
C296_C2    C300_C2    1.39543
C296_C2    H54_R      1.09880
C296_C2    C292_C2    1.39471
C297_C2    C299_C2    1.39483
C297_C2    H43_R      1.09925
C297_C2    C293_C2    1.39514
C298_C2    C300_C2    1.39483
C298_C2    H44_R      1.09925
C298_C2    C294_C2    1.39514
C299_C2    C297_C2    1.39483
C299_C2    C295_C2    1.39543
C300_C2    C298_C2    1.39483
C300_C2    C296_C2    1.39543
C301_C2    C227_C2    1.53994
C301_C2    C305_C2    1.39516
C301_C2    C303_C2    1.39483
C302_C2    C228_C2    1.53994
C302_C2    C306_C2    1.39516
C302_C2    C304_C2    1.39483
C303_C2    C307_C2    1.39514
C303_C2    C301_C2    1.39483
C303_C2    H63_R      1.09917
C304_C2    C308_C2    1.39514
C304_C2    C302_C2    1.39483
C304_C2    H64_R      1.09917
C305_C2    H77_R      1.09914
C305_C2    C309_C2    1.39471
C305_C2    C301_C2    1.39516
C306_C2    H78_R      1.09914
C306_C2    C310_C2    1.39471
C306_C2    C302_C2    1.39516
C307_C2    C311_C2    1.39483
C307_C2    C303_C2    1.39514
C307_C2    H39_R      1.09925
C308_C2    C312_C2    1.39483
C308_C2    C304_C2    1.39514
C308_C2    H40_R      1.09925
C309_C2    C311_C2    1.39543
C309_C2    C305_C2    1.39471
C309_C2    H49_R      1.09880
C310_C2    C312_C2    1.39543
C310_C2    C306_C2    1.39471
C310_C2    H50_R      1.09880
C311_C2    C309_C2    1.39543
C311_C2    C307_C2    1.39483
C312_C2    C310_C2    1.39543
C312_C2    C308_C2    1.39483
C313_C2    C287_C2    1.53994
C313_C2    C315_C2    1.39516
C313_C2    C317_C2    1.39483
C314_C2    C288_C2    1.53994
C314_C2    C316_C2    1.39516
C314_C2    C318_C2    1.39483
C315_C2    C319_C2    1.39471
C315_C2    C313_C2    1.39516
C315_C2    H75_R      1.09914
C316_C2    C320_C2    1.39471
C316_C2    C314_C2    1.39516
C316_C2    H76_R      1.09914
C317_C2    C313_C2    1.39483
C317_C2    C321_C2    1.39514
C317_C2    H61_R      1.09917
C318_C2    C314_C2    1.39483
C318_C2    C322_C2    1.39514
C318_C2    H62_R      1.09917
C319_C2    C323_C2    1.39543
C319_C2    C315_C2    1.39471
C319_C2    H59_R      1.09880
C320_C2    C324_C2    1.39543
C320_C2    C316_C2    1.39471
C320_C2    H60_R      1.09880
C321_C2    C323_C2    1.39483
C321_C2    C317_C2    1.39514
C321_C2    H37_R      1.09925
C322_C2    C324_C2    1.39483
C322_C2    C318_C2    1.39514
C322_C2    H38_R      1.09925
C323_C2    C319_C2    1.39543
C323_C2    C321_C2    1.39483
C324_C2    C320_C2    1.39543
C324_C2    C322_C2    1.39483
C325_C2    C329_C2    1.39483
C325_C2    C327_C2    1.39516
C325_C2    C275_C2    1.53994
C326_C2    C330_C2    1.39483
C326_C2    C328_C2    1.39516
C326_C2    C276_C2    1.53994
C327_C2    C331_C2    1.39471
C327_C2    C325_C2    1.39516
C327_C2    H73_R      1.09914
C328_C2    C332_C2    1.39471
C328_C2    C326_C2    1.39516
C328_C2    H74_R      1.09914
C329_C2    C333_C2    1.39514
C329_C2    C325_C2    1.39483
C329_C2    H71_R      1.09917
C330_C2    C334_C2    1.39514
C330_C2    C326_C2    1.39483
C330_C2    H72_R      1.09917
C331_C2    H57_R      1.09880
C331_C2    C335_C2    1.39543
C331_C2    C327_C2    1.39471
C332_C2    H58_R      1.09880
C332_C2    C336_C2    1.39543
C332_C2    C328_C2    1.39471
C333_C2    C335_C2    1.39483
C333_C2    C329_C2    1.39514
C333_C2    H47_R      1.09925
C334_C2    C336_C2    1.39483
C334_C2    C330_C2    1.39514
C334_C2    H48_R      1.09925
C335_C2    C333_C2    1.39483
C335_C2    C331_C2    1.39543
C336_C2    C334_C2    1.39483
C336_C2    C332_C2    1.39543
C337_C2    C339_C2    1.39516
C337_C2    C341_C2    1.39483
C337_C2    C263_C2    1.53994
C338_C2    C340_C2    1.39516
C338_C2    C342_C2    1.39483
C338_C2    C264_C2    1.53994
C339_C2    C343_C2    1.39471
C339_C2    C337_C2    1.39516
C339_C2    H83_R      1.09914
C340_C2    C344_C2    1.39471
C340_C2    C338_C2    1.39516
C340_C2    H84_R      1.09914
C341_C2    C345_C2    1.39514
C341_C2    C337_C2    1.39483
C341_C2    H69_R      1.09917
C342_C2    C346_C2    1.39514
C342_C2    C338_C2    1.39483
C342_C2    H70_R      1.09917
C343_C2    C347_C2    1.39543
C343_C2    C339_C2    1.39471
C343_C2    H55_R      1.09880
C344_C2    C348_C2    1.39543
C344_C2    C340_C2    1.39471
C344_C2    H56_R      1.09880
C345_C2    C347_C2    1.39483
C345_C2    H45_R      1.09925
C345_C2    C341_C2    1.39514
C346_C2    C348_C2    1.39483
C346_C2    H46_R      1.09925
C346_C2    C342_C2    1.39514
C347_C2    C345_C2    1.39483
C347_C2    C343_C2    1.39543
C348_C2    C346_C2    1.39483
C348_C2    C344_C2    1.39543
C349_C2    C353_C2    1.39483
C349_C2    C239_C2    1.53994
C349_C2    C351_C2    1.39516
C350_C2    C354_C2    1.39483
C350_C2    C240_C2    1.53994
C350_C2    C352_C2    1.39516
C351_C2    C355_C2    1.39471
C351_C2    C349_C2    1.39516
C351_C2    H79_R      1.09914
C352_C2    C356_C2    1.39471
C352_C2    C350_C2    1.39516
C352_C2    H80_R      1.09914
C353_C2    H65_R      1.09917
C353_C2    C357_C2    1.39514
C353_C2    C349_C2    1.39483
C354_C2    H66_R      1.09917
C354_C2    C358_C2    1.39514
C354_C2    C350_C2    1.39483
C355_C2    C359_C2    1.39543
C355_C2    C351_C2    1.39471
C355_C2    H51_R      1.09880
C356_C2    C360_C2    1.39543
C356_C2    C352_C2    1.39471
C356_C2    H52_R      1.09880
C357_C2    C359_C2    1.39483
C357_C2    C353_C2    1.39514
C357_C2    H41_R      1.09925
C358_C2    C360_C2    1.39483
C358_C2    C354_C2    1.39514
C358_C2    H42_R      1.09925
C359_C2    C357_C2    1.39483
C359_C2    C355_C2    1.39543
C360_C2    C358_C2    1.39483
C360_C2    C356_C2    1.39543
N361_Q     C193_Q     1.25000
N362_Q     C194_Q     1.25000
N363_Q     C195_Q     1.25000
N364_Q     C196_Q     1.25000
N365_Q     C197_Q     1.25000
N366_Q     C198_Q     1.25000
N367_Q     C199_Q     1.25000
N368_Q     C200_Q     1.25000
N369_Q     C201_Q     1.25000
N370_Q     C202_Q     1.25000
N371_Q     C203_Q     1.25000
N372_Q     C204_Q     1.25000
O373_R     H13_R      1.02108
O373_R     C151_C1    1.43006
O374_R     H14_R      1.02108
O374_R     C152_C1    1.43006
O375_R     C141_C1    1.43006
O375_R     H15_R      1.02108
O376_R     C142_C1    1.43006
O376_R     H16_R      1.02108
O377_R     C127_C1    1.43006
O377_R     H17_R      1.02108
O378_R     C128_C1    1.43006
O378_R     H18_R      1.02108
O379_R     C187_C1    1.43006
O379_R     H19_R      1.02108
O380_R     C188_C1    1.43006
O380_R     H20_R      1.02108
O381_R     C175_C1    1.43006
O381_R     H21_R      1.02108
O382_R     C176_C1    1.43006
O382_R     H22_R      1.02108
O383_R     C163_C1    1.43006
O383_R     H23_R      1.02108
O384_R     C164_C1    1.43006
O384_R     H24_R      1.02108
