data_H6_HPCO_CHO_H_H_H_H_H_H-T3_TPBZ_NH2_H_H_H_H_H-KGD-AA

_audit_creation_date     2024-26-12
_audit_creation_method   pyCOFBuilder
_audit_author_name       'root'

_chemical_name_common                  'H6_HPCO_CHO_H_H_H_H_H_H-T3_TPBZ_NH2_H_H_H_H_H-KGD-AA'
_cell_length_a                           33.366488
_cell_length_b                           33.366488
_cell_length_c                            7.200000
_cell_angle_alpha                        90.00
_cell_angle_beta                         90.00
_cell_angle_gamma                       120.00
_space_group_name_H-M_alt               'P 1'
_space_group_IT_number                  1

loop_
_symmetry_equiv_pos_as_xyz
   'x, y, z'

loop_
   _atom_site_label
   _atom_site_type_symbol
   _atom_site_fract_x
   _atom_site_fract_y
   _atom_site_fract_z
H1_H1_Q            H     0.146213114     0.414095976     0.250000000
H2_H2_Q            H     0.146213114     0.414095976     0.750000000
H3_H3_Q            H     0.414095976     0.267882861     0.250000000
H4_H4_Q            H     0.414095976     0.267882861     0.750000000
H5_H5_Q            H     0.732117139     0.146213115     0.250000000
H6_H6_Q            H     0.732117139     0.146213115     0.750000000
H7_H7_Q            H     0.585904024     0.732117139     0.250000000
H8_H8_Q            H     0.585904024     0.732117139     0.750000000
H9_H9_Q            H     0.853786886     0.585904024     0.250000000
H10_H10_Q          H     0.853786886     0.585904024     0.750000000
H11_H11_Q          H     0.267882861     0.853786885     0.250000000
H12_H12_Q          H     0.267882861     0.853786885     0.750000000
H13_H13_R          H     0.332784477     0.256982170     0.250000000
H14_H14_R          H     0.332784477     0.256982170     0.750000000
H15_H15_R          H     0.075802308     0.332784477     0.250000000
H16_H16_R          H     0.075802308     0.332784477     0.750000000
H17_H17_R          H     0.743017831     0.075802308     0.250000000
H18_H18_R          H     0.743017831     0.075802308     0.750000000
H19_H19_R          H     0.667215523     0.743017830     0.250000000
H20_H20_R          H     0.667215523     0.743017830     0.750000000
H21_H21_R          H     0.924197692     0.667215523     0.250000000
H22_H22_R          H     0.924197692     0.667215523     0.750000000
H23_H23_R          H     0.256982169     0.924197692     0.250000000
H24_H24_R          H     0.256982169     0.924197692     0.750000000
H25_H25_R          H     0.211371405     0.346014799     0.250000000
H26_H26_R          H     0.211371405     0.346014799     0.750000000
H27_H27_R          H     0.865356606     0.211371406     0.250000000
H28_H28_R          H     0.865356606     0.211371406     0.750000000
H29_H29_R          H     0.653985201     0.865356606     0.250000000
H30_H30_R          H     0.653985201     0.865356606     0.750000000
H31_H31_R          H     0.788628595     0.653985201     0.250000000
H32_H32_R          H     0.788628595     0.653985201     0.750000000
H33_H33_R          H     0.134643394     0.788628594     0.250000000
H34_H34_R          H     0.134643394     0.788628594     0.750000000
H35_H35_R          H     0.346014799     0.134643394     0.250000000
H36_H36_R          H     0.346014799     0.134643394     0.750000000
H37_H37_R          H     0.246816054     0.207387219     0.250000000
H38_H38_R          H     0.246816054     0.207387219     0.750000000
H39_H39_R          H     0.039428835     0.246816054     0.250000000
H40_H40_R          H     0.039428835     0.246816054     0.750000000
H41_H41_R          H     0.792612781     0.039428835     0.250000000
H42_H42_R          H     0.792612781     0.039428835     0.750000000
H43_H43_R          H     0.753183946     0.792612781     0.250000000
H44_H44_R          H     0.753183946     0.792612781     0.750000000
H45_H45_R          H     0.960571165     0.753183946     0.250000000
H46_H46_R          H     0.960571165     0.753183946     0.750000000
H47_H47_R          H     0.207387219     0.960571165     0.250000000
H48_H48_R          H     0.207387219     0.960571165     0.750000000
H49_H49_R          H     0.085028953     0.825003623     0.250000000
H50_H50_R          H     0.085028953     0.825003623     0.750000000
H51_H51_R          H     0.260025330     0.085028953     0.250000000
H52_H52_R          H     0.260025330     0.085028953     0.750000000
H53_H53_R          H     0.174996377     0.260025330     0.250000000
H54_H54_R          H     0.174996377     0.260025330     0.750000000
H55_H55_R          H     0.914971047     0.174996377     0.250000000
H56_H56_R          H     0.914971047     0.174996377     0.750000000
H57_H57_R          H     0.739974670     0.914971047     0.250000000
H58_H58_R          H     0.739974670     0.914971047     0.750000000
H59_H59_R          H     0.825003623     0.739974670     0.250000000
H60_H60_R          H     0.825003623     0.739974670     0.750000000
H61_H61_R          H     0.816232815     0.828649077     0.250000000
H62_H62_R          H     0.816232815     0.828649077     0.750000000
H63_H63_R          H     0.012416262     0.183767185     0.250000000
H64_H64_R          H     0.012416262     0.183767185     0.750000000
H65_H65_R          H     0.828649077     0.012416262     0.250000000
H66_H66_R          H     0.828649077     0.012416262     0.750000000
H67_H67_R          H     0.987583738     0.816232815     0.250000000
H68_H68_R          H     0.987583738     0.816232815     0.750000000
H69_H69_R          H     0.171350923     0.987583738     0.250000000
H70_H70_R          H     0.171350923     0.987583738     0.750000000
H71_H71_R          H     0.183767185     0.171350923     0.250000000
H72_H72_R          H     0.183767185     0.171350923     0.750000000
H73_H73_R          H     0.802934306     0.951634317     0.250000000
H74_H74_R          H     0.802934306     0.951634317     0.750000000
H75_H75_R          H     0.951634317     0.148700010     0.250000000
H76_H76_R          H     0.951634317     0.148700010     0.750000000
H77_H77_R          H     0.148700010     0.197065693     0.250000000
H78_H78_R          H     0.148700010     0.197065693     0.750000000
H79_H79_R          H     0.197065694     0.048365683     0.250000000
H80_H80_R          H     0.197065694     0.048365683     0.750000000
H81_H81_R          H     0.048365683     0.851299990     0.250000000
H82_H82_R          H     0.048365683     0.851299990     0.750000000
H83_H83_R          H     0.851299990     0.802934307     0.250000000
H84_H84_R          H     0.851299990     0.802934307     0.750000000
H85_H85_R          H     0.246882910     0.623434599     0.250000000
H86_H86_R          H     0.246882910     0.623434599     0.750000000
H87_H87_R          H     0.376551690     0.753117090     0.250000000
H88_H88_R          H     0.376551690     0.753117090     0.750000000
H89_H89_R          H     0.376565400     0.623448310     0.250000000
H90_H90_R          H     0.376565400     0.623448310     0.750000000
H91_H91_R          H     0.215265815     0.559132004     0.250000000
H92_H92_R          H     0.215265815     0.559132004     0.750000000
H93_H93_R          H     0.440867996     0.656133812     0.250000000
H94_H94_R          H     0.440867996     0.656133812     0.750000000
H95_H95_R          H     0.343866189     0.784734185     0.250000000
H96_H96_R          H     0.343866189     0.784734185     0.750000000
H97_H97_R          H     0.172457971     0.472591989     0.250000000
H98_H98_R          H     0.172457971     0.472591989     0.750000000
H99_H99_R          H     0.527408011     0.699865982     0.250000000
H100_H100_R        H     0.527408011     0.699865982     0.750000000
H101_H101_R        H     0.300134018     0.827542029     0.250000000
H102_H102_R        H     0.300134018     0.827542029     0.750000000
H103_H103_R        H     0.172425027     0.699853485     0.250000000
H104_H104_R        H     0.172425027     0.699853485     0.750000000
H105_H105_R        H     0.300146516     0.472571542     0.250000000
H106_H106_R        H     0.300146516     0.472571542     0.750000000
H107_H107_R        H     0.527428458     0.827574973     0.250000000
H108_H108_R        H     0.527428458     0.827574973     0.750000000
H109_H109_R        H     0.215252942     0.656136312     0.250000000
H110_H110_R        H     0.215252942     0.656136312     0.750000000
H111_H111_R        H     0.343863687     0.559116629     0.250000000
H112_H112_R        H     0.343863687     0.559116629     0.750000000
H113_H113_R        H     0.440883371     0.784747058     0.250000000
H114_H114_R        H     0.440883371     0.784747058     0.750000000
H115_H115_R        H     0.753117090     0.376565401     0.250000000
H116_H116_R        H     0.753117090     0.376565401     0.750000000
H117_H117_R        H     0.623448310     0.246882910     0.250000000
H118_H118_R        H     0.623448310     0.246882910     0.750000000
H119_H119_R        H     0.623434600     0.376551690     0.250000000
H120_H120_R        H     0.623434600     0.376551690     0.750000000
H121_H121_R        H     0.784734185     0.440867996     0.250000000
H122_H122_R        H     0.784734185     0.440867996     0.750000000
H123_H123_R        H     0.559132004     0.343866188     0.250000000
H124_H124_R        H     0.559132004     0.343866188     0.750000000
H125_H125_R        H     0.656133811     0.215265815     0.250000000
H126_H126_R        H     0.656133811     0.215265815     0.750000000
H127_H127_R        H     0.827542029     0.527408011     0.250000000
H128_H128_R        H     0.827542029     0.527408011     0.750000000
H129_H129_R        H     0.472591989     0.300134018     0.250000000
H130_H130_R        H     0.472591989     0.300134018     0.750000000
H131_H131_R        H     0.699865982     0.172457971     0.250000000
H132_H132_R        H     0.699865982     0.172457971     0.750000000
H133_H133_R        H     0.827574973     0.300146515     0.250000000
H134_H134_R        H     0.827574973     0.300146515     0.750000000
H135_H135_R        H     0.699853484     0.527428458     0.250000000
H136_H136_R        H     0.699853484     0.527428458     0.750000000
H137_H137_R        H     0.472571542     0.172425027     0.250000000
H138_H138_R        H     0.472571542     0.172425027     0.750000000
H139_H139_R        H     0.784747058     0.343863688     0.250000000
H140_H140_R        H     0.784747058     0.343863688     0.750000000
H141_H141_R        H     0.656136313     0.440883371     0.250000000
H142_H142_R        H     0.656136313     0.440883371     0.750000000
H143_H143_R        H     0.559116629     0.215252942     0.250000000
H144_H144_R        H     0.559116629     0.215252942     0.750000000
C145_C145_C1       C     0.979997709     0.952718094     0.250000000
C146_C146_C1       C     0.979997709     0.952718094     0.750000000
C147_C147_C1       C     0.027279614     0.979997709     0.250000000
C148_C148_C1       C     0.027279614     0.979997709     0.750000000
C149_C149_C1       C     0.047281905     0.027279614     0.250000000
C150_C150_C1       C     0.047281905     0.027279614     0.750000000
C151_C151_C1       C     0.020002291     0.047281906     0.250000000
C152_C152_C1       C     0.020002291     0.047281906     0.750000000
C153_C153_C1       C     0.972720386     0.020002291     0.250000000
C154_C154_C1       C     0.972720386     0.020002291     0.750000000
C155_C155_C1       C     0.952718095     0.972720386     0.250000000
C156_C156_C1       C     0.952718095     0.972720386     0.750000000
C157_C157_C1       C     0.042027142     0.099338323     0.250000000
C158_C158_C1       C     0.042027142     0.099338323     0.750000000
C159_C159_C1       C     0.090681338     0.126697639     0.250000000
C160_C160_C1       C     0.090681338     0.126697639     0.750000000
C161_C161_C1       C     0.013329057     0.119149673     0.250000000
C162_C162_C1       C     0.013329057     0.119149673     0.750000000
C163_C163_C1       C     0.110834099     0.175004571     0.250000000
C164_C164_C1       C     0.110834099     0.175004571     0.750000000
C165_C165_C1       C     0.034074406     0.167514430     0.250000000
C166_C166_C1       C     0.034074406     0.167514430     0.750000000
C167_C167_C1       C     0.082599328     0.195239621     0.250000000
C168_C168_C1       C     0.082599328     0.195239621     0.750000000
C169_C169_C1       C     0.942688819     0.042027142     0.250000000
C170_C170_C1       C     0.942688819     0.042027142     0.750000000
C171_C171_C1       C     0.894179384     0.013329058     0.250000000
C172_C172_C1       C     0.894179384     0.013329058     0.750000000
C173_C173_C1       C     0.963983700     0.090681338     0.250000000
C174_C174_C1       C     0.963983700     0.090681338     0.750000000
C175_C175_C1       C     0.866559976     0.034074406     0.250000000
C176_C176_C1       C     0.866559976     0.034074406     0.750000000
C177_C177_C1       C     0.935829528     0.110834099     0.250000000
C178_C178_C1       C     0.935829528     0.110834099     0.750000000
C179_C179_C1       C     0.887359707     0.082599328     0.250000000
C180_C180_C1       C     0.887359707     0.082599328     0.750000000
C181_C181_C1       C     0.900661677     0.942688819     0.250000000
C182_C182_C1       C     0.900661677     0.942688819     0.750000000
C183_C183_C1       C     0.873302361     0.963983700     0.250000000
C184_C184_C1       C     0.873302361     0.963983700     0.750000000
C185_C185_C1       C     0.880850327     0.894179384     0.250000000
C186_C186_C1       C     0.880850327     0.894179384     0.750000000
C187_C187_C1       C     0.824995429     0.935829528     0.250000000
C188_C188_C1       C     0.824995429     0.935829528     0.750000000
C189_C189_C1       C     0.832485570     0.866559976     0.250000000
C190_C190_C1       C     0.832485570     0.866559976     0.750000000
C191_C191_C1       C     0.804760379     0.887359707     0.250000000
C192_C192_C1       C     0.804760379     0.887359707     0.750000000
C193_C193_C1       C     0.957972858     0.900661677     0.250000000
C194_C194_C1       C     0.957972858     0.900661677     0.750000000
C195_C195_C1       C     0.909318662     0.873302361     0.250000000
C196_C196_C1       C     0.909318662     0.873302361     0.750000000
C197_C197_C1       C     0.986670943     0.880850327     0.250000000
C198_C198_C1       C     0.986670943     0.880850327     0.750000000
C199_C199_C1       C     0.889165901     0.824995429     0.250000000
C200_C200_C1       C     0.889165901     0.824995429     0.750000000
C201_C201_C1       C     0.965925594     0.832485570     0.250000000
C202_C202_C1       C     0.965925594     0.832485570     0.750000000
C203_C203_C1       C     0.917400672     0.804760379     0.250000000
C204_C204_C1       C     0.917400672     0.804760379     0.750000000
C205_C205_C1       C     0.057311181     0.957972858     0.250000000
C206_C206_C1       C     0.057311181     0.957972858     0.750000000
C207_C207_C1       C     0.036016300     0.909318662     0.250000000
C208_C208_C1       C     0.036016300     0.909318662     0.750000000
C209_C209_C1       C     0.105820616     0.986670942     0.250000000
C210_C210_C1       C     0.105820616     0.986670942     0.750000000
C211_C211_C1       C     0.064170472     0.889165901     0.250000000
C212_C212_C1       C     0.064170472     0.889165901     0.750000000
C213_C213_C1       C     0.133440024     0.965925594     0.250000000
C214_C214_C1       C     0.133440024     0.965925594     0.750000000
C215_C215_C1       C     0.112640293     0.917400672     0.250000000
C216_C216_C1       C     0.112640293     0.917400672     0.750000000
C217_C217_C1       C     0.099338323     0.057311181     0.250000000
C218_C218_C1       C     0.099338323     0.057311181     0.750000000
C219_C219_C1       C     0.126697639     0.036016300     0.250000000
C220_C220_C1       C     0.126697639     0.036016300     0.750000000
C221_C221_C1       C     0.119149673     0.105820616     0.250000000
C222_C222_C1       C     0.119149673     0.105820616     0.750000000
C223_C223_C1       C     0.175004571     0.064170472     0.250000000
C224_C224_C1       C     0.175004571     0.064170472     0.750000000
C225_C225_C1       C     0.167514430     0.133440024     0.250000000
C226_C226_C1       C     0.167514430     0.133440024     0.750000000
C227_C227_C1       C     0.195239621     0.112640293     0.250000000
C228_C228_C1       C     0.195239621     0.112640293     0.750000000
C229_C229_C1       C     0.751677539     0.856733524     0.250000000
C230_C230_C1       C     0.751677539     0.856733524     0.750000000
C231_C231_C1       C     0.723933161     0.877081676     0.250000000
C232_C232_C1       C     0.723933161     0.877081676     0.750000000
C233_C233_C1       C     0.731333035     0.808652286     0.250000000
C234_C234_C1       C     0.731333035     0.808652286     0.750000000
C235_C235_C1       C     0.675855432     0.849352162     0.250000000
C236_C236_C1       C     0.675855432     0.849352162     0.750000000
C237_C237_C1       C     0.683241154     0.780909395     0.250000000
C238_C238_C1       C     0.683241154     0.780909395     0.750000000
C239_C239_C1       C     0.655501234     0.801250221     0.250000000
C240_C240_C1       C     0.655501234     0.801250221     0.750000000
C241_C241_C1       C     0.105055985     0.248322461     0.250000000
C242_C242_C1       C     0.105055985     0.248322461     0.750000000
C243_C243_C1       C     0.077319251     0.268666965     0.250000000
C244_C244_C1       C     0.077319251     0.268666965     0.750000000
C245_C245_C1       C     0.153148515     0.276066840     0.250000000
C246_C246_C1       C     0.153148515     0.276066840     0.750000000
C247_C247_C1       C     0.097668241     0.316758846     0.250000000
C248_C248_C1       C     0.097668241     0.316758846     0.750000000
C249_C249_C1       C     0.173496730     0.324144568     0.250000000
C250_C250_C1       C     0.173496730     0.324144568     0.750000000
C251_C251_C1       C     0.145748987     0.344498766     0.250000000
C252_C252_C1       C     0.145748987     0.344498766     0.750000000
C253_C253_C1       C     0.248322461     0.143266476     0.250000000
C254_C254_C1       C     0.248322461     0.143266476     0.750000000
C255_C255_C1       C     0.276066839     0.122918324     0.250000000
C256_C256_C1       C     0.276066839     0.122918324     0.750000000
C257_C257_C1       C     0.268666965     0.191347714     0.250000000
C258_C258_C1       C     0.268666965     0.191347714     0.750000000
C259_C259_C1       C     0.324144568     0.150647838     0.250000000
C260_C260_C1       C     0.324144568     0.150647838     0.750000000
C261_C261_C1       C     0.316758846     0.219090605     0.250000000
C262_C262_C1       C     0.316758846     0.219090605     0.750000000
C263_C263_C1       C     0.344498766     0.198749779     0.250000000
C264_C264_C1       C     0.344498766     0.198749779     0.750000000
C265_C265_C1       C     0.143266476     0.894944015     0.250000000
C266_C266_C1       C     0.143266476     0.894944015     0.750000000
C267_C267_C1       C     0.122918324     0.846851485     0.250000000
C268_C268_C1       C     0.122918324     0.846851485     0.750000000
C269_C269_C1       C     0.191347714     0.922680749     0.250000000
C270_C270_C1       C     0.191347714     0.922680749     0.750000000
C271_C271_C1       C     0.150647838     0.826503270     0.250000000
C272_C272_C1       C     0.150647838     0.826503270     0.750000000
C273_C273_C1       C     0.219090605     0.902331759     0.250000000
C274_C274_C1       C     0.219090605     0.902331759     0.750000000
C275_C275_C1       C     0.198749779     0.854251013     0.250000000
C276_C276_C1       C     0.198749779     0.854251013     0.750000000
C277_C277_C1       C     0.894944015     0.751677539     0.250000000
C278_C278_C1       C     0.894944015     0.751677539     0.750000000
C279_C279_C1       C     0.846851485     0.723933160     0.250000000
C280_C280_C1       C     0.846851485     0.723933160     0.750000000
C281_C281_C1       C     0.922680749     0.731333035     0.250000000
C282_C282_C1       C     0.922680749     0.731333035     0.750000000
C283_C283_C1       C     0.826503270     0.675855432     0.250000000
C284_C284_C1       C     0.826503270     0.675855432     0.750000000
C285_C285_C1       C     0.902331759     0.683241154     0.250000000
C286_C286_C1       C     0.902331759     0.683241154     0.750000000
C287_C287_C1       C     0.854251013     0.655501234     0.250000000
C288_C288_C1       C     0.854251013     0.655501234     0.750000000
C289_C289_C1       C     0.856733524     0.105055985     0.250000000
C290_C290_C1       C     0.856733524     0.105055985     0.750000000
C291_C291_C1       C     0.877081676     0.153148515     0.250000000
C292_C292_C1       C     0.877081676     0.153148515     0.750000000
C293_C293_C1       C     0.808652286     0.077319251     0.250000000
C294_C294_C1       C     0.808652286     0.077319251     0.750000000
C295_C295_C1       C     0.849352162     0.173496730     0.250000000
C296_C296_C1       C     0.849352162     0.173496730     0.750000000
C297_C297_C1       C     0.780909395     0.097668241     0.250000000
C298_C298_C1       C     0.780909395     0.097668241     0.750000000
C299_C299_C1       C     0.801250221     0.145748987     0.250000000
C300_C300_C1       C     0.801250221     0.145748987     0.750000000
C301_C301_Q        C     0.168319428     0.397926297     0.250000000
C302_C302_Q        C     0.168319428     0.397926297     0.750000000
C303_C303_Q        C     0.397926296     0.229606868     0.250000000
C304_C304_Q        C     0.397926296     0.229606868     0.750000000
C305_C305_Q        C     0.770393132     0.168319428     0.250000000
C306_C306_Q        C     0.770393132     0.168319428     0.750000000
C307_C307_Q        C     0.602073704     0.770393132     0.250000000
C308_C308_Q        C     0.602073704     0.770393132     0.750000000
C309_C309_Q        C     0.831680572     0.602073703     0.250000000
C310_C310_Q        C     0.831680572     0.602073703     0.750000000
C311_C311_Q        C     0.229606868     0.831680572     0.250000000
C312_C312_Q        C     0.229606868     0.831680572     0.750000000
C313_C313_C2       C     0.284922479     0.642456132     0.250000000
C314_C314_C2       C     0.284922479     0.642456132     0.750000000
C315_C315_C2       C     0.309123961     0.618247104     0.250000000
C316_C316_C2       C     0.309123961     0.618247104     0.750000000
C317_C317_C2       C     0.357543868     0.642466347     0.250000000
C318_C318_C2       C     0.357543868     0.642466347     0.750000000
C319_C319_C2       C     0.381752896     0.690876857     0.250000000
C320_C320_C2       C     0.381752896     0.690876857     0.750000000
C321_C321_C2       C     0.357533652     0.715077521     0.250000000
C322_C322_C2       C     0.357533652     0.715077521     0.750000000
C323_C323_C2       C     0.309123143     0.690876039     0.250000000
C324_C324_C2       C     0.309123143     0.690876039     0.750000000
C325_C325_C2       C     0.435196771     0.717608436     0.250000000
C326_C326_C2       C     0.435196771     0.717608436     0.750000000
C327_C327_C2       C     0.459701636     0.694172775     0.250000000
C328_C328_C2       C     0.459701636     0.694172775     0.750000000
C329_C329_C2       C     0.459712928     0.765537681     0.250000000
C330_C330_C2       C     0.459712928     0.765537681     0.750000000
C331_C331_C2       C     0.508194704     0.718691585     0.250000000
C332_C332_C2       C     0.508194704     0.718691585     0.750000000
C333_C333_C2       C     0.508201251     0.789536161     0.250000000
C334_C334_C2       C     0.508201251     0.789536161     0.750000000
C335_C335_C2       C     0.532200888     0.766110758     0.250000000
C336_C336_C2       C     0.532200888     0.766110758     0.750000000
C337_C337_C2       C     0.282411665     0.564803229     0.250000000
C338_C338_C2       C     0.282411665     0.564803229     0.750000000
C339_C339_C2       C     0.234471140     0.540298365     0.250000000
C340_C340_C2       C     0.234471140     0.540298365     0.750000000
C341_C341_C2       C     0.305824753     0.540287072     0.250000000
C342_C342_C2       C     0.305824753     0.540287072     0.750000000
C343_C343_C2       C     0.210496881     0.491805296     0.250000000
C344_C344_C2       C     0.210496881     0.491805296     0.750000000
C345_C345_C2       C     0.281334910     0.491798749     0.250000000
C346_C346_C2       C     0.281334910     0.491798749     0.750000000
C347_C347_C2       C     0.233909871     0.467799112     0.250000000
C348_C348_C2       C     0.233909871     0.467799112     0.750000000
C349_C349_C2       C     0.282391564     0.717588335     0.250000000
C350_C350_C2       C     0.282391564     0.717588335     0.750000000
C351_C351_C2       C     0.305827225     0.765528860     0.250000000
C352_C352_C2       C     0.305827225     0.765528860     0.750000000
C353_C353_C2       C     0.234462319     0.694175247     0.250000000
C354_C354_C2       C     0.234462319     0.694175247     0.750000000
C355_C355_C2       C     0.281308415     0.789503119     0.250000000
C356_C356_C2       C     0.281308415     0.789503119     0.750000000
C357_C357_C2       C     0.210463839     0.718665090     0.250000000
C358_C358_C2       C     0.210463839     0.718665090     0.750000000
C359_C359_C2       C     0.233889242     0.766090130     0.250000000
C360_C360_C2       C     0.233889242     0.766090130     0.750000000
C361_C361_C2       C     0.715077521     0.357543868     0.250000000
C362_C362_C2       C     0.715077521     0.357543868     0.750000000
C363_C363_C2       C     0.690876039     0.381752896     0.250000000
C364_C364_C2       C     0.690876039     0.381752896     0.750000000
C365_C365_C2       C     0.642456132     0.357533653     0.250000000
C366_C366_C2       C     0.642456132     0.357533653     0.750000000
C367_C367_C2       C     0.618247104     0.309123143     0.250000000
C368_C368_C2       C     0.618247104     0.309123143     0.750000000
C369_C369_C2       C     0.642466348     0.284922479     0.250000000
C370_C370_C2       C     0.642466348     0.284922479     0.750000000
C371_C371_C2       C     0.690876857     0.309123961     0.250000000
C372_C372_C2       C     0.690876857     0.309123961     0.750000000
C373_C373_C2       C     0.564803229     0.282391564     0.250000000
C374_C374_C2       C     0.564803229     0.282391564     0.750000000
C375_C375_C2       C     0.540298364     0.305827225     0.250000000
C376_C376_C2       C     0.540298364     0.305827225     0.750000000
C377_C377_C2       C     0.540287072     0.234462319     0.250000000
C378_C378_C2       C     0.540287072     0.234462319     0.750000000
C379_C379_C2       C     0.491805296     0.281308415     0.250000000
C380_C380_C2       C     0.491805296     0.281308415     0.750000000
C381_C381_C2       C     0.491798749     0.210463839     0.250000000
C382_C382_C2       C     0.491798749     0.210463839     0.750000000
C383_C383_C2       C     0.467799112     0.233889242     0.250000000
C384_C384_C2       C     0.467799112     0.233889242     0.750000000
C385_C385_C2       C     0.717588335     0.435196771     0.250000000
C386_C386_C2       C     0.717588335     0.435196771     0.750000000
C387_C387_C2       C     0.765528860     0.459701635     0.250000000
C388_C388_C2       C     0.765528860     0.459701635     0.750000000
C389_C389_C2       C     0.694175247     0.459712928     0.250000000
C390_C390_C2       C     0.694175247     0.459712928     0.750000000
C391_C391_C2       C     0.789503119     0.508194704     0.250000000
C392_C392_C2       C     0.789503119     0.508194704     0.750000000
C393_C393_C2       C     0.718665090     0.508201251     0.250000000
C394_C394_C2       C     0.718665090     0.508201251     0.750000000
C395_C395_C2       C     0.766090129     0.532200888     0.250000000
C396_C396_C2       C     0.766090129     0.532200888     0.750000000
C397_C397_C2       C     0.717608436     0.282411665     0.250000000
C398_C398_C2       C     0.717608436     0.282411665     0.750000000
C399_C399_C2       C     0.694172775     0.234471140     0.250000000
C400_C400_C2       C     0.694172775     0.234471140     0.750000000
C401_C401_C2       C     0.765537681     0.305824753     0.250000000
C402_C402_C2       C     0.765537681     0.305824753     0.750000000
C403_C403_C2       C     0.718691585     0.210496881     0.250000000
C404_C404_C2       C     0.718691585     0.210496881     0.750000000
C405_C405_C2       C     0.789536161     0.281334910     0.250000000
C406_C406_C2       C     0.789536161     0.281334910     0.750000000
C407_C407_C2       C     0.766110758     0.233909870     0.250000000
C408_C408_C2       C     0.766110758     0.233909870     0.750000000
N409_N409_Q        N     0.211405270     0.422810540     0.250000000
N410_N410_Q        N     0.211405270     0.422810540     0.750000000
N411_N411_Q        N     0.422810540     0.211405270     0.250000000
N412_N412_Q        N     0.422810540     0.211405270     0.750000000
N413_N413_Q        N     0.788594730     0.211405270     0.250000000
N414_N414_Q        N     0.788594730     0.211405270     0.750000000
N415_N415_Q        N     0.577189460     0.788594730     0.250000000
N416_N416_Q        N     0.577189460     0.788594730     0.750000000
N417_N417_Q        N     0.788594730     0.577189460     0.250000000
N418_N418_Q        N     0.788594730     0.577189460     0.750000000
N419_N419_Q        N     0.211405270     0.788594730     0.250000000
N420_N420_Q        N     0.211405270     0.788594730     0.750000000

loop_
_geom_bond_atom_site_label_1
_geom_bond_atom_site_label_2
_geom_bond_distance
H1_Q       C301_Q     1.11046
H2_Q       C302_Q     1.11046
H3_Q       C303_Q     1.11046
H4_Q       C304_Q     1.11046
H5_Q       C305_Q     1.11046
H6_Q       C306_Q     1.11046
H7_Q       C307_Q     1.11046
H8_Q       C308_Q     1.11046
H9_Q       C309_Q     1.11046
H10_Q      C310_Q     1.11046
H11_Q      C311_Q     1.11046
H12_Q      C312_Q     1.11046
H13_R      C261_C1    1.09925
H14_R      C262_C1    1.09925
H15_R      C247_C1    1.09925
H16_R      C248_C1    1.09925
H17_R      C297_C1    1.09925
H18_R      C298_C1    1.09925
H19_R      C237_C1    1.09925
H20_R      C238_C1    1.09925
H21_R      C285_C1    1.09925
H22_R      C286_C1    1.09925
H23_R      C273_C1    1.09925
H24_R      C274_C1    1.09925
H25_R      C249_C1    1.09880
H26_R      C250_C1    1.09880
H27_R      C295_C1    1.09880
H28_R      C296_C1    1.09880
H29_R      C235_C1    1.09880
H30_R      C236_C1    1.09880
H31_R      C283_C1    1.09880
H32_R      C284_C1    1.09880
H33_R      C271_C1    1.09880
H34_R      C272_C1    1.09880
H35_R      C259_C1    1.09880
H36_R      C260_C1    1.09880
H37_R      C257_C1    1.09917
H38_R      C258_C1    1.09917
H39_R      C243_C1    1.09917
H40_R      C244_C1    1.09917
H41_R      C293_C1    1.09917
H42_R      C294_C1    1.09917
H43_R      C233_C1    1.09917
H44_R      C234_C1    1.09917
H45_R      C281_C1    1.09917
H46_R      C282_C1    1.09917
H47_R      C269_C1    1.09917
H48_R      C270_C1    1.09917
H49_R      C267_C1    1.09914
H50_R      C268_C1    1.09914
H51_R      C255_C1    1.09914
H52_R      C256_C1    1.09914
H53_R      C245_C1    1.09914
H54_R      C246_C1    1.09914
H55_R      C291_C1    1.09914
H56_R      C292_C1    1.09914
H57_R      C231_C1    1.09914
H58_R      C232_C1    1.09914
H59_R      C279_C1    1.09914
H60_R      C280_C1    1.09914
H61_R      C189_C1    1.09919
H62_R      C190_C1    1.09919
H63_R      C165_C1    1.09919
H64_R      C166_C1    1.09919
H65_R      C175_C1    1.09919
H66_R      C176_C1    1.09919
H67_R      C201_C1    1.09919
H68_R      C202_C1    1.09919
H69_R      C213_C1    1.09919
H70_R      C214_C1    1.09919
H71_R      C225_C1    1.09919
H72_R      C226_C1    1.09919
H73_R      C187_C1    1.09915
H74_R      C188_C1    1.09915
H75_R      C177_C1    1.09915
H76_R      C178_C1    1.09915
H77_R      C163_C1    1.09915
H78_R      C164_C1    1.09915
H79_R      C223_C1    1.09915
H80_R      C224_C1    1.09915
H81_R      C211_C1    1.09915
H82_R      C212_C1    1.09915
H83_R      C199_C1    1.09915
H84_R      C200_C1    1.09915
H85_R      C313_C2    1.09920
H86_R      C314_C2    1.09920
H87_R      C321_C2    1.09920
H88_R      C322_C2    1.09920
H89_R      C317_C2    1.09920
H90_R      C318_C2    1.09920
H91_R      C339_C2    1.09920
H92_R      C340_C2    1.09920
H93_R      C327_C2    1.09920
H94_R      C328_C2    1.09920
H95_R      C351_C2    1.09920
H96_R      C352_C2    1.09920
H97_R      C343_C2    1.09920
H98_R      C344_C2    1.09920
H99_R      C331_C2    1.09920
H100_R     C332_C2    1.09920
H101_R     C355_C2    1.09920
H102_R     C356_C2    1.09920
H103_R     C357_C2    1.09920
H104_R     C358_C2    1.09920
H105_R     C345_C2    1.09920
H106_R     C346_C2    1.09920
H107_R     C333_C2    1.09920
H108_R     C334_C2    1.09920
H109_R     C353_C2    1.09920
H110_R     C354_C2    1.09920
H111_R     C341_C2    1.09920
H112_R     C342_C2    1.09920
H113_R     C329_C2    1.09920
H114_R     C330_C2    1.09920
H115_R     C361_C2    1.09920
H116_R     C362_C2    1.09920
H117_R     C369_C2    1.09920
H118_R     C370_C2    1.09920
H119_R     C365_C2    1.09920
H120_R     C366_C2    1.09920
H121_R     C387_C2    1.09920
H122_R     C388_C2    1.09920
H123_R     C375_C2    1.09920
H124_R     C376_C2    1.09920
H125_R     C399_C2    1.09920
H126_R     C400_C2    1.09920
H127_R     C391_C2    1.09920
H128_R     C392_C2    1.09920
H129_R     C379_C2    1.09920
H130_R     C380_C2    1.09920
H131_R     C403_C2    1.09920
H132_R     C404_C2    1.09920
H133_R     C405_C2    1.09920
H134_R     C406_C2    1.09920
H135_R     C393_C2    1.09920
H136_R     C394_C2    1.09920
H137_R     C381_C2    1.09920
H138_R     C382_C2    1.09920
H139_R     C401_C2    1.09920
H140_R     C402_C2    1.09920
H141_R     C389_C2    1.09920
H142_R     C390_C2    1.09920
H143_R     C377_C2    1.09920
H144_R     C378_C2    1.09920
C145_C1    C147_C1    1.37165
C145_C1    C193_C1    1.51015
C145_C1    C155_C1    1.37165
C146_C1    C148_C1    1.37165
C146_C1    C194_C1    1.51015
C146_C1    C156_C1    1.37165
C147_C1    C149_C1    1.37165
C147_C1    C145_C1    1.37165
C147_C1    C205_C1    1.51015
C148_C1    C150_C1    1.37165
C148_C1    C146_C1    1.37165
C148_C1    C206_C1    1.51015
C149_C1    C147_C1    1.37165
C149_C1    C217_C1    1.51015
C149_C1    C151_C1    1.37165
C150_C1    C148_C1    1.37165
C150_C1    C218_C1    1.51015
C150_C1    C152_C1    1.37165
C151_C1    C153_C1    1.37165
C151_C1    C157_C1    1.51015
C151_C1    C149_C1    1.37165
C152_C1    C154_C1    1.37165
C152_C1    C158_C1    1.51015
C152_C1    C150_C1    1.37165
C153_C1    C155_C1    1.37165
C153_C1    C151_C1    1.37165
C153_C1    C169_C1    1.51015
C154_C1    C156_C1    1.37165
C154_C1    C152_C1    1.37165
C154_C1    C170_C1    1.51015
C155_C1    C181_C1    1.51015
C155_C1    C153_C1    1.37165
C155_C1    C145_C1    1.37165
C156_C1    C182_C1    1.51015
C156_C1    C154_C1    1.37165
C156_C1    C146_C1    1.37165
C157_C1    C161_C1    1.40956
C157_C1    C159_C1    1.40956
C157_C1    C151_C1    1.51015
C158_C1    C162_C1    1.40956
C158_C1    C160_C1    1.40956
C158_C1    C152_C1    1.51015
C159_C1    C221_C1    1.43151
C159_C1    C163_C1    1.40226
C159_C1    C157_C1    1.40956
C160_C1    C222_C1    1.43151
C160_C1    C164_C1    1.40226
C160_C1    C158_C1    1.40956
C161_C1    C165_C1    1.40226
C161_C1    C173_C1    1.43151
C161_C1    C157_C1    1.40956
C162_C1    C166_C1    1.40226
C162_C1    C174_C1    1.43151
C162_C1    C158_C1    1.40956
C163_C1    C167_C1    1.40694
C163_C1    C159_C1    1.40226
C163_C1    H77_R      1.09915
C164_C1    C168_C1    1.40694
C164_C1    C160_C1    1.40226
C164_C1    H78_R      1.09915
C165_C1    C161_C1    1.40226
C165_C1    H63_R      1.09919
C165_C1    C167_C1    1.40694
C166_C1    C162_C1    1.40226
C166_C1    H64_R      1.09919
C166_C1    C168_C1    1.40694
C167_C1    C165_C1    1.40694
C167_C1    C241_C1    1.53994
C167_C1    C163_C1    1.40694
C168_C1    C166_C1    1.40694
C168_C1    C242_C1    1.53994
C168_C1    C164_C1    1.40694
C169_C1    C173_C1    1.40956
C169_C1    C171_C1    1.40956
C169_C1    C153_C1    1.51015
C170_C1    C174_C1    1.40956
C170_C1    C172_C1    1.40956
C170_C1    C154_C1    1.51015
C171_C1    C175_C1    1.40226
C171_C1    C183_C1    1.43151
C171_C1    C169_C1    1.40956
C172_C1    C176_C1    1.40226
C172_C1    C184_C1    1.43151
C172_C1    C170_C1    1.40956
C173_C1    C177_C1    1.40226
C173_C1    C161_C1    1.43151
C173_C1    C169_C1    1.40956
C174_C1    C178_C1    1.40226
C174_C1    C162_C1    1.43151
C174_C1    C170_C1    1.40956
C175_C1    C179_C1    1.40694
C175_C1    H65_R      1.09919
C175_C1    C171_C1    1.40226
C176_C1    C180_C1    1.40694
C176_C1    H66_R      1.09919
C176_C1    C172_C1    1.40226
C177_C1    C179_C1    1.40694
C177_C1    H75_R      1.09915
C177_C1    C173_C1    1.40226
C178_C1    C180_C1    1.40694
C178_C1    H76_R      1.09915
C178_C1    C174_C1    1.40226
C179_C1    C289_C1    1.53994
C179_C1    C177_C1    1.40694
C179_C1    C175_C1    1.40694
C180_C1    C290_C1    1.53994
C180_C1    C178_C1    1.40694
C180_C1    C176_C1    1.40694
C181_C1    C185_C1    1.40956
C181_C1    C183_C1    1.40956
C181_C1    C155_C1    1.51015
C182_C1    C186_C1    1.40956
C182_C1    C184_C1    1.40956
C182_C1    C156_C1    1.51015
C183_C1    C171_C1    1.43151
C183_C1    C187_C1    1.40226
C183_C1    C181_C1    1.40956
C184_C1    C172_C1    1.43151
C184_C1    C188_C1    1.40226
C184_C1    C182_C1    1.40956
C185_C1    C189_C1    1.40226
C185_C1    C181_C1    1.40956
C185_C1    C195_C1    1.43151
C186_C1    C190_C1    1.40226
C186_C1    C182_C1    1.40956
C186_C1    C196_C1    1.43151
C187_C1    C191_C1    1.40694
C187_C1    C183_C1    1.40226
C187_C1    H73_R      1.09915
C188_C1    C192_C1    1.40694
C188_C1    C184_C1    1.40226
C188_C1    H74_R      1.09915
C189_C1    H61_R      1.09919
C189_C1    C191_C1    1.40694
C189_C1    C185_C1    1.40226
C190_C1    H62_R      1.09919
C190_C1    C192_C1    1.40694
C190_C1    C186_C1    1.40226
C191_C1    C229_C1    1.53994
C191_C1    C189_C1    1.40694
C191_C1    C187_C1    1.40694
C192_C1    C230_C1    1.53994
C192_C1    C190_C1    1.40694
C192_C1    C188_C1    1.40694
C193_C1    C195_C1    1.40956
C193_C1    C197_C1    1.40956
C193_C1    C145_C1    1.51015
C194_C1    C196_C1    1.40956
C194_C1    C198_C1    1.40956
C194_C1    C146_C1    1.51015
C195_C1    C185_C1    1.43151
C195_C1    C199_C1    1.40226
C195_C1    C193_C1    1.40956
C196_C1    C186_C1    1.43151
C196_C1    C200_C1    1.40226
C196_C1    C194_C1    1.40956
C197_C1    C201_C1    1.40226
C197_C1    C207_C1    1.43151
C197_C1    C193_C1    1.40956
C198_C1    C202_C1    1.40226
C198_C1    C208_C1    1.43151
C198_C1    C194_C1    1.40956
C199_C1    C203_C1    1.40694
C199_C1    C195_C1    1.40226
C199_C1    H83_R      1.09915
C200_C1    C204_C1    1.40694
C200_C1    C196_C1    1.40226
C200_C1    H84_R      1.09915
C201_C1    C203_C1    1.40694
C201_C1    H67_R      1.09919
C201_C1    C197_C1    1.40226
C202_C1    C204_C1    1.40694
C202_C1    H68_R      1.09919
C202_C1    C198_C1    1.40226
C203_C1    C277_C1    1.53994
C203_C1    C201_C1    1.40694
C203_C1    C199_C1    1.40694
C204_C1    C278_C1    1.53994
C204_C1    C202_C1    1.40694
C204_C1    C200_C1    1.40694
C205_C1    C209_C1    1.40956
C205_C1    C207_C1    1.40956
C205_C1    C147_C1    1.51015
C206_C1    C210_C1    1.40956
C206_C1    C208_C1    1.40956
C206_C1    C148_C1    1.51015
C207_C1    C211_C1    1.40226
C207_C1    C205_C1    1.40956
C207_C1    C197_C1    1.43151
C208_C1    C212_C1    1.40226
C208_C1    C206_C1    1.40956
C208_C1    C198_C1    1.43151
C209_C1    C219_C1    1.43151
C209_C1    C213_C1    1.40226
C209_C1    C205_C1    1.40956
C210_C1    C220_C1    1.43151
C210_C1    C214_C1    1.40226
C210_C1    C206_C1    1.40956
C211_C1    H81_R      1.09915
C211_C1    C215_C1    1.40694
C211_C1    C207_C1    1.40226
C212_C1    H82_R      1.09915
C212_C1    C216_C1    1.40694
C212_C1    C208_C1    1.40226
C213_C1    C215_C1    1.40694
C213_C1    C209_C1    1.40226
C213_C1    H69_R      1.09919
C214_C1    C216_C1    1.40694
C214_C1    C210_C1    1.40226
C214_C1    H70_R      1.09919
C215_C1    C213_C1    1.40694
C215_C1    C211_C1    1.40694
C215_C1    C265_C1    1.53994
C216_C1    C214_C1    1.40694
C216_C1    C212_C1    1.40694
C216_C1    C266_C1    1.53994
C217_C1    C221_C1    1.40956
C217_C1    C219_C1    1.40956
C217_C1    C149_C1    1.51015
C218_C1    C222_C1    1.40956
C218_C1    C220_C1    1.40956
C218_C1    C150_C1    1.51015
C219_C1    C209_C1    1.43151
C219_C1    C217_C1    1.40956
C219_C1    C223_C1    1.40226
C220_C1    C210_C1    1.43151
C220_C1    C218_C1    1.40956
C220_C1    C224_C1    1.40226
C221_C1    C225_C1    1.40226
C221_C1    C217_C1    1.40956
C221_C1    C159_C1    1.43151
C222_C1    C226_C1    1.40226
C222_C1    C218_C1    1.40956
C222_C1    C160_C1    1.43151
C223_C1    C219_C1    1.40226
C223_C1    C227_C1    1.40694
C223_C1    H79_R      1.09915
C224_C1    C220_C1    1.40226
C224_C1    C228_C1    1.40694
C224_C1    H80_R      1.09915
C225_C1    C221_C1    1.40226
C225_C1    H71_R      1.09919
C225_C1    C227_C1    1.40694
C226_C1    C222_C1    1.40226
C226_C1    H72_R      1.09919
C226_C1    C228_C1    1.40694
C227_C1    C225_C1    1.40694
C227_C1    C253_C1    1.53994
C227_C1    C223_C1    1.40694
C228_C1    C226_C1    1.40694
C228_C1    C254_C1    1.53994
C228_C1    C224_C1    1.40694
C229_C1    C231_C1    1.39516
C229_C1    C233_C1    1.39483
C229_C1    C191_C1    1.53994
C230_C1    C232_C1    1.39516
C230_C1    C234_C1    1.39483
C230_C1    C192_C1    1.53994
C231_C1    C235_C1    1.39471
C231_C1    H57_R      1.09914
C231_C1    C229_C1    1.39516
C232_C1    C236_C1    1.39471
C232_C1    H58_R      1.09914
C232_C1    C230_C1    1.39516
C233_C1    C237_C1    1.39514
C233_C1    C229_C1    1.39483
C233_C1    H43_R      1.09917
C234_C1    C238_C1    1.39514
C234_C1    C230_C1    1.39483
C234_C1    H44_R      1.09917
C235_C1    C239_C1    1.39543
C235_C1    C231_C1    1.39471
C235_C1    H29_R      1.09880
C236_C1    C240_C1    1.39543
C236_C1    C232_C1    1.39471
C236_C1    H30_R      1.09880
C237_C1    C239_C1    1.39483
C237_C1    C233_C1    1.39514
C237_C1    H19_R      1.09925
C238_C1    C240_C1    1.39483
C238_C1    C234_C1    1.39514
C238_C1    H20_R      1.09925
C239_C1    C307_Q     1.55003
C239_C1    C235_C1    1.39543
C239_C1    C237_C1    1.39483
C240_C1    C308_Q     1.55003
C240_C1    C236_C1    1.39543
C240_C1    C238_C1    1.39483
C241_C1    C243_C1    1.39483
C241_C1    C167_C1    1.53994
C241_C1    C245_C1    1.39516
C242_C1    C244_C1    1.39483
C242_C1    C168_C1    1.53994
C242_C1    C246_C1    1.39516
C243_C1    C247_C1    1.39514
C243_C1    C241_C1    1.39483
C243_C1    H39_R      1.09917
C244_C1    C248_C1    1.39514
C244_C1    C242_C1    1.39483
C244_C1    H40_R      1.09917
C245_C1    C241_C1    1.39516
C245_C1    C249_C1    1.39471
C245_C1    H53_R      1.09914
C246_C1    C242_C1    1.39516
C246_C1    C250_C1    1.39471
C246_C1    H54_R      1.09914
C247_C1    C251_C1    1.39483
C247_C1    C243_C1    1.39514
C247_C1    H15_R      1.09925
C248_C1    C252_C1    1.39483
C248_C1    C244_C1    1.39514
C248_C1    H16_R      1.09925
C249_C1    C251_C1    1.39543
C249_C1    C245_C1    1.39471
C249_C1    H25_R      1.09880
C250_C1    C252_C1    1.39543
C250_C1    C246_C1    1.39471
C250_C1    H26_R      1.09880
C251_C1    C247_C1    1.39483
C251_C1    C301_Q     1.55003
C251_C1    C249_C1    1.39543
C252_C1    C248_C1    1.39483
C252_C1    C302_Q     1.55003
C252_C1    C250_C1    1.39543
C253_C1    C255_C1    1.39516
C253_C1    C227_C1    1.53994
C253_C1    C257_C1    1.39483
C254_C1    C256_C1    1.39516
C254_C1    C228_C1    1.53994
C254_C1    C258_C1    1.39483
C255_C1    C259_C1    1.39471
C255_C1    C253_C1    1.39516
C255_C1    H51_R      1.09914
C256_C1    C260_C1    1.39471
C256_C1    C254_C1    1.39516
C256_C1    H52_R      1.09914
C257_C1    C253_C1    1.39483
C257_C1    C261_C1    1.39514
C257_C1    H37_R      1.09917
C258_C1    C254_C1    1.39483
C258_C1    C262_C1    1.39514
C258_C1    H38_R      1.09917
C259_C1    C255_C1    1.39471
C259_C1    H35_R      1.09880
C259_C1    C263_C1    1.39543
C260_C1    C256_C1    1.39471
C260_C1    H36_R      1.09880
C260_C1    C264_C1    1.39543
C261_C1    C263_C1    1.39483
C261_C1    C257_C1    1.39514
C261_C1    H13_R      1.09925
C262_C1    C264_C1    1.39483
C262_C1    C258_C1    1.39514
C262_C1    H14_R      1.09925
C263_C1    C259_C1    1.39543
C263_C1    C303_Q     1.55003
C263_C1    C261_C1    1.39483
C264_C1    C260_C1    1.39543
C264_C1    C304_Q     1.55003
C264_C1    C262_C1    1.39483
C265_C1    C215_C1    1.53994
C265_C1    C267_C1    1.39516
C265_C1    C269_C1    1.39483
C266_C1    C216_C1    1.53994
C266_C1    C268_C1    1.39516
C266_C1    C270_C1    1.39483
C267_C1    H49_R      1.09914
C267_C1    C271_C1    1.39471
C267_C1    C265_C1    1.39516
C268_C1    H50_R      1.09914
C268_C1    C272_C1    1.39471
C268_C1    C266_C1    1.39516
C269_C1    C273_C1    1.39514
C269_C1    C265_C1    1.39483
C269_C1    H47_R      1.09917
C270_C1    C274_C1    1.39514
C270_C1    C266_C1    1.39483
C270_C1    H48_R      1.09917
C271_C1    C275_C1    1.39543
C271_C1    C267_C1    1.39471
C271_C1    H33_R      1.09880
C272_C1    C276_C1    1.39543
C272_C1    C268_C1    1.39471
C272_C1    H34_R      1.09880
C273_C1    C275_C1    1.39483
C273_C1    C269_C1    1.39514
C273_C1    H23_R      1.09925
C274_C1    C276_C1    1.39483
C274_C1    C270_C1    1.39514
C274_C1    H24_R      1.09925
C275_C1    C311_Q     1.55003
C275_C1    C271_C1    1.39543
C275_C1    C273_C1    1.39483
C276_C1    C312_Q     1.55003
C276_C1    C272_C1    1.39543
C276_C1    C274_C1    1.39483
C277_C1    C281_C1    1.39483
C277_C1    C279_C1    1.39516
C277_C1    C203_C1    1.53994
C278_C1    C282_C1    1.39483
C278_C1    C280_C1    1.39516
C278_C1    C204_C1    1.53994
C279_C1    C283_C1    1.39471
C279_C1    C277_C1    1.39516
C279_C1    H59_R      1.09914
C280_C1    C284_C1    1.39471
C280_C1    C278_C1    1.39516
C280_C1    H60_R      1.09914
C281_C1    C285_C1    1.39514
C281_C1    C277_C1    1.39483
C281_C1    H45_R      1.09917
C282_C1    C286_C1    1.39514
C282_C1    C278_C1    1.39483
C282_C1    H46_R      1.09917
C283_C1    C287_C1    1.39543
C283_C1    H31_R      1.09880
C283_C1    C279_C1    1.39471
C284_C1    C288_C1    1.39543
C284_C1    H32_R      1.09880
C284_C1    C280_C1    1.39471
C285_C1    C287_C1    1.39483
C285_C1    C281_C1    1.39514
C285_C1    H21_R      1.09925
C286_C1    C288_C1    1.39483
C286_C1    C282_C1    1.39514
C286_C1    H22_R      1.09925
C287_C1    C309_Q     1.55003
C287_C1    C285_C1    1.39483
C287_C1    C283_C1    1.39543
C288_C1    C310_Q     1.55003
C288_C1    C286_C1    1.39483
C288_C1    C284_C1    1.39543
C289_C1    C293_C1    1.39483
C289_C1    C291_C1    1.39516
C289_C1    C179_C1    1.53994
C290_C1    C294_C1    1.39483
C290_C1    C292_C1    1.39516
C290_C1    C180_C1    1.53994
C291_C1    C295_C1    1.39471
C291_C1    C289_C1    1.39516
C291_C1    H55_R      1.09914
C292_C1    C296_C1    1.39471
C292_C1    C290_C1    1.39516
C292_C1    H56_R      1.09914
C293_C1    C297_C1    1.39514
C293_C1    C289_C1    1.39483
C293_C1    H41_R      1.09917
C294_C1    C298_C1    1.39514
C294_C1    C290_C1    1.39483
C294_C1    H42_R      1.09917
C295_C1    C299_C1    1.39543
C295_C1    C291_C1    1.39471
C295_C1    H27_R      1.09880
C296_C1    C300_C1    1.39543
C296_C1    C292_C1    1.39471
C296_C1    H28_R      1.09880
C297_C1    C299_C1    1.39483
C297_C1    H17_R      1.09925
C297_C1    C293_C1    1.39514
C298_C1    C300_C1    1.39483
C298_C1    H18_R      1.09925
C298_C1    C294_C1    1.39514
C299_C1    C305_Q     1.55003
C299_C1    C297_C1    1.39483
C299_C1    C295_C1    1.39543
C300_C1    C306_Q     1.55003
C300_C1    C298_C1    1.39483
C300_C1    C296_C1    1.39543
C301_Q     C251_C1    1.55003
C301_Q     H1_Q       1.11046
C301_Q     N409_Q     1.25000
C302_Q     C252_C1    1.55003
C302_Q     H2_Q       1.11046
C302_Q     N410_Q     1.25000
C303_Q     C263_C1    1.55003
C303_Q     H3_Q       1.11046
C303_Q     N411_Q     1.25000
C304_Q     C264_C1    1.55003
C304_Q     H4_Q       1.11046
C304_Q     N412_Q     1.25000
C305_Q     C299_C1    1.55003
C305_Q     H5_Q       1.11046
C305_Q     N413_Q     1.25000
C306_Q     C300_C1    1.55003
C306_Q     H6_Q       1.11046
C306_Q     N414_Q     1.25000
C307_Q     N415_Q     1.25000
C307_Q     C239_C1    1.55003
C307_Q     H7_Q       1.11046
C308_Q     N416_Q     1.25000
C308_Q     C240_C1    1.55003
C308_Q     H8_Q       1.11046
C309_Q     N417_Q     1.25000
C309_Q     C287_C1    1.55003
C309_Q     H9_Q       1.11046
C310_Q     N418_Q     1.25000
C310_Q     C288_C1    1.55003
C310_Q     H10_Q      1.11046
C311_Q     N419_Q     1.25000
C311_Q     C275_C1    1.55003
C311_Q     H11_Q      1.11046
C312_Q     N420_Q     1.25000
C312_Q     C276_C1    1.55003
C312_Q     H12_Q      1.11046
C313_C2    C323_C2    1.39915
C313_C2    H85_R      1.09920
C313_C2    C315_C2    1.39888
C314_C2    C324_C2    1.39915
C314_C2    H86_R      1.09920
C314_C2    C316_C2    1.39888
C315_C2    C313_C2    1.39888
C315_C2    C337_C2    1.54433
C315_C2    C317_C2    1.39915
C316_C2    C314_C2    1.39888
C316_C2    C338_C2    1.54433
C316_C2    C318_C2    1.39915
C317_C2    C319_C2    1.39888
C317_C2    C315_C2    1.39915
C317_C2    H89_R      1.09920
C318_C2    C320_C2    1.39888
C318_C2    C316_C2    1.39915
C318_C2    H90_R      1.09920
C319_C2    C317_C2    1.39888
C319_C2    C325_C2    1.54433
C319_C2    C321_C2    1.39915
C320_C2    C318_C2    1.39888
C320_C2    C326_C2    1.54433
C320_C2    C322_C2    1.39915
C321_C2    C323_C2    1.39888
C321_C2    C319_C2    1.39915
C321_C2    H87_R      1.09920
C322_C2    C324_C2    1.39888
C322_C2    C320_C2    1.39915
C322_C2    H88_R      1.09920
C323_C2    C313_C2    1.39915
C323_C2    C349_C2    1.54433
C323_C2    C321_C2    1.39888
C324_C2    C314_C2    1.39915
C324_C2    C350_C2    1.54433
C324_C2    C322_C2    1.39888
C325_C2    C327_C2    1.38542
C325_C2    C319_C2    1.54433
C325_C2    C329_C2    1.38510
C326_C2    C328_C2    1.38542
C326_C2    C320_C2    1.54433
C326_C2    C330_C2    1.38510
C327_C2    H93_R      1.09920
C327_C2    C325_C2    1.38542
C327_C2    C331_C2    1.40130
C328_C2    H94_R      1.09920
C328_C2    C326_C2    1.38542
C328_C2    C332_C2    1.40130
C329_C2    C333_C2    1.40115
C329_C2    C325_C2    1.38510
C329_C2    H113_R     1.09920
C330_C2    C334_C2    1.40115
C330_C2    C326_C2    1.38510
C330_C2    H114_R     1.09920
C331_C2    C327_C2    1.40130
C331_C2    H99_R      1.09920
C331_C2    C335_C2    1.37027
C332_C2    C328_C2    1.40130
C332_C2    H100_R     1.09920
C332_C2    C336_C2    1.37027
C333_C2    C329_C2    1.40115
C333_C2    H107_R     1.09920
C333_C2    C335_C2    1.37044
C334_C2    C330_C2    1.40115
C334_C2    H108_R     1.09920
C334_C2    C336_C2    1.37044
C335_C2    C333_C2    1.37044
C335_C2    N415_Q     1.30000
C335_C2    C331_C2    1.37027
C336_C2    C334_C2    1.37044
C336_C2    N416_Q     1.30000
C336_C2    C332_C2    1.37027
C337_C2    C339_C2    1.38542
C337_C2    C341_C2    1.38510
C337_C2    C315_C2    1.54433
C338_C2    C340_C2    1.38542
C338_C2    C342_C2    1.38510
C338_C2    C316_C2    1.54433
C339_C2    C343_C2    1.40130
C339_C2    H91_R      1.09920
C339_C2    C337_C2    1.38542
C340_C2    C344_C2    1.40130
C340_C2    H92_R      1.09920
C340_C2    C338_C2    1.38542
C341_C2    C345_C2    1.40115
C341_C2    C337_C2    1.38510
C341_C2    H111_R     1.09920
C342_C2    C346_C2    1.40115
C342_C2    C338_C2    1.38510
C342_C2    H112_R     1.09920
C343_C2    H97_R      1.09920
C343_C2    C339_C2    1.40130
C343_C2    C347_C2    1.37027
C344_C2    H98_R      1.09920
C344_C2    C340_C2    1.40130
C344_C2    C348_C2    1.37027
C345_C2    C347_C2    1.37044
C345_C2    H105_R     1.09920
C345_C2    C341_C2    1.40115
C346_C2    C348_C2    1.37044
C346_C2    H106_R     1.09920
C346_C2    C342_C2    1.40115
C347_C2    C343_C2    1.37027
C347_C2    N409_Q     1.30000
C347_C2    C345_C2    1.37044
C348_C2    C344_C2    1.37027
C348_C2    N410_Q     1.30000
C348_C2    C346_C2    1.37044
C349_C2    C353_C2    1.38510
C349_C2    C323_C2    1.54433
C349_C2    C351_C2    1.38542
C350_C2    C354_C2    1.38510
C350_C2    C324_C2    1.54433
C350_C2    C352_C2    1.38542
C351_C2    C355_C2    1.40130
C351_C2    C349_C2    1.38542
C351_C2    H95_R      1.09920
C352_C2    C356_C2    1.40130
C352_C2    C350_C2    1.38542
C352_C2    H96_R      1.09920
C353_C2    H109_R     1.09920
C353_C2    C357_C2    1.40115
C353_C2    C349_C2    1.38510
C354_C2    H110_R     1.09920
C354_C2    C358_C2    1.40115
C354_C2    C350_C2    1.38510
C355_C2    C359_C2    1.37027
C355_C2    C351_C2    1.40130
C355_C2    H101_R     1.09920
C356_C2    C360_C2    1.37027
C356_C2    C352_C2    1.40130
C356_C2    H102_R     1.09920
C357_C2    H103_R     1.09920
C357_C2    C353_C2    1.40115
C357_C2    C359_C2    1.37044
C358_C2    H104_R     1.09920
C358_C2    C354_C2    1.40115
C358_C2    C360_C2    1.37044
C359_C2    N419_Q     1.30000
C359_C2    C357_C2    1.37044
C359_C2    C355_C2    1.37027
C360_C2    N420_Q     1.30000
C360_C2    C358_C2    1.37044
C360_C2    C356_C2    1.37027
C361_C2    C371_C2    1.39915
C361_C2    C363_C2    1.39888
C361_C2    H115_R     1.09920
C362_C2    C372_C2    1.39915
C362_C2    C364_C2    1.39888
C362_C2    H116_R     1.09920
C363_C2    C365_C2    1.39915
C363_C2    C361_C2    1.39888
C363_C2    C385_C2    1.54433
C364_C2    C366_C2    1.39915
C364_C2    C362_C2    1.39888
C364_C2    C386_C2    1.54433
C365_C2    H119_R     1.09920
C365_C2    C367_C2    1.39888
C365_C2    C363_C2    1.39915
C366_C2    H120_R     1.09920
C366_C2    C368_C2    1.39888
C366_C2    C364_C2    1.39915
C367_C2    C373_C2    1.54433
C367_C2    C369_C2    1.39915
C367_C2    C365_C2    1.39888
C368_C2    C374_C2    1.54433
C368_C2    C370_C2    1.39915
C368_C2    C366_C2    1.39888
C369_C2    C371_C2    1.39888
C369_C2    C367_C2    1.39915
C369_C2    H117_R     1.09920
C370_C2    C372_C2    1.39888
C370_C2    C368_C2    1.39915
C370_C2    H118_R     1.09920
C371_C2    C397_C2    1.54433
C371_C2    C369_C2    1.39888
C371_C2    C361_C2    1.39915
C372_C2    C398_C2    1.54433
C372_C2    C370_C2    1.39888
C372_C2    C362_C2    1.39915
C373_C2    C377_C2    1.38510
C373_C2    C375_C2    1.38542
C373_C2    C367_C2    1.54433
C374_C2    C378_C2    1.38510
C374_C2    C376_C2    1.38542
C374_C2    C368_C2    1.54433
C375_C2    C379_C2    1.40130
C375_C2    C373_C2    1.38542
C375_C2    H123_R     1.09920
C376_C2    C380_C2    1.40130
C376_C2    C374_C2    1.38542
C376_C2    H124_R     1.09920
C377_C2    C381_C2    1.40115
C377_C2    C373_C2    1.38510
C377_C2    H143_R     1.09920
C378_C2    C382_C2    1.40115
C378_C2    C374_C2    1.38510
C378_C2    H144_R     1.09920
C379_C2    C383_C2    1.37027
C379_C2    C375_C2    1.40130
C379_C2    H129_R     1.09920
C380_C2    C384_C2    1.37027
C380_C2    C376_C2    1.40130
C380_C2    H130_R     1.09920
C381_C2    H137_R     1.09920
C381_C2    C383_C2    1.37044
C381_C2    C377_C2    1.40115
C382_C2    H138_R     1.09920
C382_C2    C384_C2    1.37044
C382_C2    C378_C2    1.40115
C383_C2    N411_Q     1.30000
C383_C2    C381_C2    1.37044
C383_C2    C379_C2    1.37027
C384_C2    N412_Q     1.30000
C384_C2    C382_C2    1.37044
C384_C2    C380_C2    1.37027
C385_C2    C389_C2    1.38510
C385_C2    C387_C2    1.38542
C385_C2    C363_C2    1.54433
C386_C2    C390_C2    1.38510
C386_C2    C388_C2    1.38542
C386_C2    C364_C2    1.54433
C387_C2    C391_C2    1.40130
C387_C2    C385_C2    1.38542
C387_C2    H121_R     1.09920
C388_C2    C392_C2    1.40130
C388_C2    C386_C2    1.38542
C388_C2    H122_R     1.09920
C389_C2    H141_R     1.09920
C389_C2    C393_C2    1.40115
C389_C2    C385_C2    1.38510
C390_C2    H142_R     1.09920
C390_C2    C394_C2    1.40115
C390_C2    C386_C2    1.38510
C391_C2    C387_C2    1.40130
C391_C2    H127_R     1.09920
C391_C2    C395_C2    1.37027
C392_C2    C388_C2    1.40130
C392_C2    H128_R     1.09920
C392_C2    C396_C2    1.37027
C393_C2    H135_R     1.09920
C393_C2    C389_C2    1.40115
C393_C2    C395_C2    1.37044
C394_C2    H136_R     1.09920
C394_C2    C390_C2    1.40115
C394_C2    C396_C2    1.37044
C395_C2    C393_C2    1.37044
C395_C2    C391_C2    1.37027
C395_C2    N417_Q     1.30000
C396_C2    C394_C2    1.37044
C396_C2    C392_C2    1.37027
C396_C2    N418_Q     1.30000
C397_C2    C399_C2    1.38542
C397_C2    C371_C2    1.54433
C397_C2    C401_C2    1.38510
C398_C2    C400_C2    1.38542
C398_C2    C372_C2    1.54433
C398_C2    C402_C2    1.38510
C399_C2    C397_C2    1.38542
C399_C2    H125_R     1.09920
C399_C2    C403_C2    1.40130
C400_C2    C398_C2    1.38542
C400_C2    H126_R     1.09920
C400_C2    C404_C2    1.40130
C401_C2    C397_C2    1.38510
C401_C2    C405_C2    1.40115
C401_C2    H139_R     1.09920
C402_C2    C398_C2    1.38510
C402_C2    C406_C2    1.40115
C402_C2    H140_R     1.09920
C403_C2    C399_C2    1.40130
C403_C2    H131_R     1.09920
C403_C2    C407_C2    1.37027
C404_C2    C400_C2    1.40130
C404_C2    H132_R     1.09920
C404_C2    C408_C2    1.37027
C405_C2    C407_C2    1.37044
C405_C2    C401_C2    1.40115
C405_C2    H133_R     1.09920
C406_C2    C408_C2    1.37044
C406_C2    C402_C2    1.40115
C406_C2    H134_R     1.09920
C407_C2    N413_Q     1.30000
C407_C2    C405_C2    1.37044
C407_C2    C403_C2    1.37027
C408_C2    N414_Q     1.30000
C408_C2    C406_C2    1.37044
C408_C2    C404_C2    1.37027
N409_Q     C301_Q     1.25000
N409_Q     C347_C2    1.30000
N410_Q     C302_Q     1.25000
N410_Q     C348_C2    1.30000
N411_Q     C303_Q     1.25000
N411_Q     C383_C2    1.30000
N412_Q     C304_Q     1.25000
N412_Q     C384_C2    1.30000
N413_Q     C305_Q     1.25000
N413_Q     C407_C2    1.30000
N414_Q     C306_Q     1.25000
N414_Q     C408_C2    1.30000
N415_Q     C335_C2    1.30000
N415_Q     C307_Q     1.25000
N416_Q     C336_C2    1.30000
N416_Q     C308_Q     1.25000
N417_Q     C395_C2    1.30000
N417_Q     C309_Q     1.25000
N418_Q     C396_C2    1.30000
N418_Q     C310_Q     1.25000
N419_Q     C311_Q     1.25000
N419_Q     C359_C2    1.30000
N420_Q     C312_Q     1.25000
N420_Q     C360_C2    1.30000
