data_S4_PHPR_CHO_H_H_H_H_H_H-S4_PTCA_CH2CN_H_H_H-FXT-AA

_audit_creation_date     2024-29-12
_audit_creation_method   pyCOFBuilder
_audit_author_name       'root'

_chemical_name_common                  'S4_PHPR_CHO_H_H_H_H_H_H-S4_PTCA_CH2CN_H_H_H-FXT-AA'
_cell_length_a                           36.279036
_cell_length_b                           36.279036
_cell_length_c                            9.024873
_cell_angle_alpha                        90.00
_cell_angle_beta                         90.00
_cell_angle_gamma                       120.00
_space_group_name_H-M_alt               'P 1'
_space_group_IT_number                  1

loop_
_symmetry_equiv_pos_as_xyz
   'x, y, z'

loop_
   _atom_site_label
   _atom_site_type_symbol
   _atom_site_fract_x
   _atom_site_fract_y
   _atom_site_fract_z
H1_H1_C1           H     0.479883139     0.513931914     0.249969016
H2_H2_C1           H     0.479883139     0.513931914     0.749969016
H3_H3_C1           H     0.520116858     0.486068083     0.249968333
H4_H4_C1           H     0.520116858     0.486068083     0.749968333
H5_H5_Q            H     0.518037084     0.782848534     0.250008958
H6_H6_Q            H     0.518037084     0.782848534     0.750008958
H7_H7_Q            H     0.481962910     0.217151460     0.249938801
H8_H8_Q            H     0.481962910     0.217151460     0.749938801
H9_H9_Q            H     0.816191638     0.642475243     0.250032540
H10_H10_Q          H     0.816191638     0.642475243     0.750032540
H11_H11_Q          H     0.183808357     0.357524752     0.249979962
H12_H12_Q          H     0.183808357     0.357524752     0.749979962
H13_H13_R          H     0.599190750     0.749979747     0.148930803
H14_H14_R          H     0.599190750     0.749979747     0.648930803
H15_H15_R          H     0.731383890     0.529790601     0.148924321
H16_H16_R          H     0.731383890     0.529790601     0.648924321
H17_H17_R          H     0.400811911     0.250021694     0.148895852
H18_H18_R          H     0.400811911     0.250021694     0.648895852
H19_H19_R          H     0.268616133     0.470207836     0.148902334
H20_H20_R          H     0.268616133     0.470207836     0.648902334
H21_H21_R          H     0.750002696     0.645843188     0.351016567
H22_H22_R          H     0.750002696     0.645843188     0.851016567
H23_H23_R          H     0.524063845     0.295523167     0.351021030
H24_H24_R          H     0.524063845     0.295523167     0.851021030
H25_H25_R          H     0.249997276     0.354158368     0.351021363
H26_H26_R          H     0.249997276     0.354158368     0.851021363
H27_H27_R          H     0.475933490     0.704475386     0.351016901
H28_H28_R          H     0.475933490     0.704475386     0.851016901
H29_H29_R          H     0.587318305     0.676063476     0.148915081
H30_H30_R          H     0.587318305     0.676063476     0.648915081
H31_H31_R          H     0.652887291     0.500824141     0.148909691
H32_H32_R          H     0.652887291     0.500824141     0.648909691
H33_H33_R          H     0.412684356     0.323937966     0.148885143
H34_H34_R          H     0.412684356     0.323937966     0.648885143
H35_H35_R          H     0.347112732     0.499174297     0.148890533
H36_H36_R          H     0.347112732     0.499174297     0.648890533
H37_H37_R          H     0.464087665     0.630579037     0.351093306
H38_H38_R          H     0.464087665     0.630579037     0.851093306
H39_H39_R          H     0.671513732     0.616857491     0.351094064
H40_H40_R          H     0.671513732     0.616857491     0.851094064
H41_H41_R          H     0.535909666     0.369419515     0.351102441
H42_H42_R          H     0.535909666     0.369419515     0.851102441
H43_H43_R          H     0.328486239     0.383144067     0.351101683
H44_H44_R          H     0.328486239     0.383144067     0.851101683
H45_H45_R          H     0.630836844     0.472141268     0.249965956
H46_H46_R          H     0.630836844     0.472141268     0.749965956
H47_H47_R          H     0.369163153     0.527858729     0.249966266
H48_H48_R          H     0.369163153     0.527858729     0.749966266
H49_H49_R          H     0.392292819     0.332838377     0.249959977
H50_H50_R          H     0.392292819     0.332838377     0.749959977
H51_H51_R          H     0.607707178     0.667161620     0.249972246
H52_H52_R          H     0.607707178     0.667161620     0.749972246
H53_H53_R          H     0.560615169     0.393211824     0.249964495
H54_H54_R          H     0.560615169     0.393211824     0.749964495
H55_H55_R          H     0.658304546     0.631646549     0.249972919
H56_H56_R          H     0.658304546     0.631646549     0.749972919
H57_H57_R          H     0.439384829     0.606788173     0.249970824
H58_H58_R          H     0.439384829     0.606788173     0.749970824
H59_H59_R          H     0.341695451     0.368353448     0.249962400
H60_H60_R          H     0.341695451     0.368353448     0.749962400
H61_H61_C2         H     0.512855535     0.983487380     0.250000000
H62_H62_C2         H     0.512855535     0.983487380     0.750000000
H63_H63_C2         H     0.487144465     0.016512620     0.250000000
H64_H64_C2         H     0.487144465     0.016512620     0.750000000
H65_H65_R          H     0.684693507     0.091333591     0.250000000
H66_H66_R          H     0.684693507     0.091333591     0.750000000
H67_H67_R          H     0.501169899     0.160534218     0.250000000
H68_H68_R          H     0.501169899     0.160534218     0.750000000
H69_H69_R          H     0.315306493     0.908666409     0.250000000
H70_H70_R          H     0.315306493     0.908666409     0.750000000
H71_H71_R          H     0.498830101     0.839465782     0.250000000
H72_H72_R          H     0.498830101     0.839465782     0.750000000
H73_H73_R          H     0.362393305     0.101550057     0.250000000
H74_H74_R          H     0.362393305     0.101550057     0.750000000
H75_H75_R          H     0.696707168     0.217524478     0.250000000
H76_H76_R          H     0.696707168     0.217524478     0.750000000
H77_H77_R          H     0.637606695     0.898449943     0.250000000
H78_H78_R          H     0.637606695     0.898449943     0.750000000
H79_H79_R          H     0.303292832     0.782475522     0.250000000
H80_H80_R          H     0.303292832     0.782475522     0.750000000
H81_H81_R          H     0.380695948     0.813897089     0.250000000
H82_H82_R          H     0.380695948     0.813897089     0.750000000
H83_H83_R          H     0.646012904     0.969686112     0.250000000
H84_H84_R          H     0.646012904     0.969686112     0.750000000
H85_H85_R          H     0.619304052     0.186102911     0.250000000
H86_H86_R          H     0.619304052     0.186102911     0.750000000
H87_H87_R          H     0.353987096     0.030313888     0.250000000
H88_H88_R          H     0.353987096     0.030313888     0.750000000
H89_H89_C2         H     0.024377858     0.497888581     0.250000000
H90_H90_C2         H     0.024377858     0.497888581     0.750000000
H91_H91_C2         H     0.975622142     0.502111419     0.250000000
H92_H92_C2         H     0.975622142     0.502111419     0.750000000
H93_H93_R          H     0.160534218     0.659364319     0.250000000
H94_H94_R          H     0.160534218     0.659364319     0.750000000
H95_H95_R          H     0.908666409     0.593359916     0.250000000
H96_H96_R          H     0.908666409     0.593359916     0.750000000
H97_H97_R          H     0.839465782     0.340635681     0.250000000
H98_H98_R          H     0.839465782     0.340635681     0.750000000
H99_H99_R          H     0.091333591     0.406640084     0.250000000
H100_H100_R        H     0.091333591     0.406640084     0.750000000
H101_H101_R        H     0.782475522     0.479182691     0.250000000
H102_H102_R        H     0.782475522     0.479182691     0.750000000
H103_H103_R        H     0.101550057     0.739156752     0.250000000
H104_H104_R        H     0.101550057     0.739156752     0.750000000
H105_H105_R        H     0.217524478     0.520817309     0.250000000
H106_H106_R        H     0.217524478     0.520817309     0.750000000
H107_H107_R        H     0.898449943     0.260843248     0.250000000
H108_H108_R        H     0.898449943     0.260843248     0.750000000
H109_H109_R        H     0.969686112     0.323673208     0.250000000
H110_H110_R        H     0.969686112     0.323673208     0.750000000
H111_H111_R        H     0.186102911     0.566798858     0.250000000
H112_H112_R        H     0.186102911     0.566798858     0.750000000
H113_H113_R        H     0.030313888     0.676326792     0.250000000
H114_H114_R        H     0.030313888     0.676326792     0.750000000
H115_H115_R        H     0.813897089     0.433201142     0.250000000
H116_H116_R        H     0.813897089     0.433201142     0.750000000
C117_C117_C1       C     0.476318716     0.571235326     0.249970737
C118_C118_C1       C     0.476318716     0.571235326     0.749970737
C119_C119_C1       C     0.437418521     0.575500551     0.249971261
C120_C120_C1       C     0.437418521     0.575500551     0.749971261
C121_C121_C1       C     0.402590939     0.536342070     0.249970466
C122_C122_C1       C     0.402590939     0.536342070     0.749970466
C123_C123_C1       C     0.416279307     0.503729863     0.249969368
C124_C124_C1       C     0.416279307     0.503729863     0.749969368
C125_C125_C1       C     0.390917440     0.460767445     0.249968364
C126_C126_C1       C     0.390917440     0.460767445     0.749968364
C127_C127_C1       C     0.517676993     0.603306763     0.249973799
C128_C128_C1       C     0.517676993     0.603306763     0.749973799
C129_C129_C1       C     0.552643039     0.598825764     0.249973295
C130_C130_C1       C     0.552643039     0.598825764     0.749973295
C131_C131_C1       C     0.598203354     0.633460396     0.249974806
C132_C132_C1       C     0.598203354     0.633460396     0.749974806
C133_C133_C1       C     0.623311960     0.615853128     0.249973674
C134_C134_C1       C     0.623311960     0.615853128     0.749973674
C135_C135_C1       C     0.595927864     0.568472524     0.249971343
C136_C136_C1       C     0.595927864     0.568472524     0.749971343
C137_C137_C1       C     0.404072133     0.431527473     0.249965714
C138_C138_C1       C     0.404072133     0.431527473     0.749965714
C139_C139_C1       C     0.376688038     0.384146869     0.249964604
C140_C140_C1       C     0.376688038     0.384146869     0.749964604
C141_C141_C1       C     0.401796643     0.366539601     0.249964868
C142_C142_C1       C     0.401796643     0.366539601     0.749964868
C143_C143_C1       C     0.447356959     0.401174233     0.249966171
C144_C144_C1       C     0.447356959     0.401174233     0.749966171
C145_C145_C1       C     0.609082558     0.539232552     0.249972221
C146_C146_C1       C     0.609082558     0.539232552     0.749972221
C147_C147_C1       C     0.482323004     0.396693234     0.249966786
C148_C148_C1       C     0.482323004     0.396693234     0.749966786
C149_C149_C1       C     0.583720690     0.496270134     0.249970098
C150_C150_C1       C     0.583720690     0.496270134     0.749970098
C151_C151_C1       C     0.597409058     0.463657927     0.249969208
C152_C152_C1       C     0.597409058     0.463657927     0.749969208
C153_C153_C1       C     0.562581476     0.424499446     0.249967017
C154_C154_C1       C     0.562581476     0.424499446     0.749967017
C155_C155_C1       C     0.523681282     0.428764672     0.249966320
C156_C156_C1       C     0.523681282     0.428764672     0.749966320
C157_C157_C1       C     0.342451347     0.442872812     0.249968334
C158_C158_C1       C     0.342451347     0.442872812     0.749968334
C159_C159_C1       C     0.325703549     0.467215095     0.193378102
C160_C160_C1       C     0.325703549     0.467215095     0.693378102
C161_C161_C1       C     0.315296952     0.402329090     0.306529904
C162_C162_C1       C     0.315296952     0.402329090     0.806529904
C163_C163_C1       C     0.281812232     0.451023301     0.193422374
C164_C164_C1       C     0.281812232     0.451023301     0.693422374
C165_C165_C1       C     0.271389483     0.386115225     0.306482289
C166_C166_C1       C     0.271389483     0.386115225     0.806482289
C167_C167_C1       C     0.254644381     0.410455836     0.249955571
C168_C168_C1       C     0.254644381     0.410455836     0.749955571
C169_C169_C1       C     0.524995962     0.648939114     0.249976186
C170_C170_C1       C     0.524995962     0.648939114     0.749976186
C171_C171_C1       C     0.493856448     0.656885716     0.306529646
C172_C172_C1       C     0.493856448     0.656885716     0.806529646
C173_C173_C1       C     0.562774609     0.682332495     0.193396257
C174_C174_C1       C     0.562774609     0.682332495     0.693396257
C175_C175_C1       C     0.500484280     0.698224615     0.306484220
C176_C176_C1       C     0.500484280     0.698224615     0.806484220
C177_C177_C1       C     0.569418599     0.723665485     0.193442724
C178_C178_C1       C     0.569418599     0.723665485     0.693442724
C179_C179_C1       C     0.538259438     0.731613916     0.249967805
C180_C180_C1       C     0.538259438     0.731613916     0.749967805
C181_C181_C1       C     0.475004035     0.351060883     0.249966083
C182_C182_C1       C     0.475004035     0.351060883     0.749966083
C183_C183_C1       C     0.506142058     0.343113472     0.306529066
C184_C184_C1       C     0.506142058     0.343113472     0.806529066
C185_C185_C1       C     0.437226880     0.317668311     0.193373826
C186_C186_C1       C     0.437226880     0.317668311     0.693373826
C187_C187_C1       C     0.499514228     0.301774574     0.306480840
C188_C188_C1       C     0.499514228     0.301774574     0.806480840
C189_C189_C1       C     0.430582889     0.276335320     0.193417487
C190_C190_C1       C     0.430582889     0.276335320     0.693417487
C191_C191_C1       C     0.461740560     0.268386082     0.249952099
C192_C192_C1       C     0.461740560     0.268386082     0.749952099
C193_C193_C1       C     0.657548650     0.557127185     0.249973935
C194_C194_C1       C     0.657548650     0.557127185     0.749973935
C195_C195_C1       C     0.684703031     0.597671780     0.306528808
C196_C196_C1       C     0.684703031     0.597671780     0.806528808
C197_C197_C1       C     0.674296463     0.532784029     0.193391981
C198_C198_C1       C     0.674296463     0.532784029     0.693391981
C199_C199_C1       C     0.728610500     0.613885644     0.306482772
C200_C200_C1       C     0.728610500     0.613885644     0.806482772
C201_C201_C1       C     0.718187779     0.548975823     0.193437837
C202_C202_C1       C     0.718187779     0.548975823     0.693437837
C203_C203_C1       C     0.745355616     0.589544161     0.249964332
C204_C204_C1       C     0.745355616     0.589544161     0.749964332
C205_C205_Q        C     0.545652116     0.777552242     0.249994584
C206_C206_Q        C     0.545652116     0.777552242     0.749994584
C207_C207_Q        C     0.454347881     0.222447755     0.249975758
C208_C208_Q        C     0.454347881     0.222447755     0.749975758
C209_C209_Q        C     0.794132461     0.607530337     0.249990432
C210_C210_Q        C     0.794132461     0.607530337     0.749990432
C211_C211_Q        C     0.205867536     0.392469661     0.249979910
C212_C212_Q        C     0.205867536     0.392469661     0.749979910
C213_C213_C2       C     0.505224476     0.922073858     0.250000000
C214_C214_C2       C     0.505224476     0.922073858     0.750000000
C215_C215_C2       C     0.538159010     0.907439610     0.250000000
C216_C216_C2       C     0.538159010     0.907439610     0.750000000
C217_C217_C2       C     0.569086848     0.980130663     0.250000000
C218_C218_C2       C     0.569086848     0.980130663     0.750000000
C219_C219_C2       C     0.437169556     0.908753813     0.250000000
C220_C220_C2       C     0.437169556     0.908753813     0.750000000
C221_C221_C2       C     0.371089353     0.902498004     0.250000000
C222_C222_C2       C     0.371089353     0.902498004     0.750000000
C223_C223_C2       C     0.407002289     0.948976616     0.250000000
C224_C224_C2       C     0.407002289     0.948976616     0.750000000
C225_C225_C2       C     0.592997711     0.051023384     0.250000000
C226_C226_C2       C     0.592997711     0.051023384     0.750000000
C227_C227_C2       C     0.611659852     0.122634201     0.250000000
C228_C228_C2       C     0.611659852     0.122634201     0.750000000
C229_C229_C2       C     0.562830444     0.091246187     0.250000000
C230_C230_C2       C     0.562830444     0.091246187     0.750000000
C231_C231_C2       C     0.430913152     0.019869337     0.250000000
C232_C232_C2       C     0.430913152     0.019869337     0.750000000
C233_C233_C2       C     0.461840990     0.092560390     0.250000000
C234_C234_C2       C     0.461840990     0.092560390     0.750000000
C235_C235_C2       C     0.494775524     0.077926142     0.250000000
C236_C236_C2       C     0.494775524     0.077926142     0.750000000
C237_C237_C2       C     0.388340148     0.877365799     0.250000000
C238_C238_C2       C     0.388340148     0.877365799     0.750000000
C239_C239_C2       C     0.364777779     0.834461939     0.250000000
C240_C240_C2       C     0.364777779     0.834461939     0.750000000
C241_C241_C2       C     0.325626880     0.884687532     0.250000000
C242_C242_C2       C     0.325626880     0.884687532     0.750000000
C243_C243_C2       C     0.320013763     0.814649014     0.250000000
C244_C244_C2       C     0.320013763     0.814649014     0.750000000
C245_C245_C2       C     0.300289596     0.839941423     0.250000000
C246_C246_C2       C     0.300289596     0.839941423     0.750000000
C247_C247_C2       C     0.577138932     0.941869198     0.250000000
C248_C248_C2       C     0.577138932     0.941869198     0.750000000
C249_C249_C2       C     0.613076302     0.939432273     0.250000000
C250_C250_C2       C     0.613076302     0.939432273     0.750000000
C251_C251_C2       C     0.532477000     0.865226948     0.250000000
C252_C252_C2       C     0.532477000     0.865226948     0.750000000
C253_C253_C2       C     0.610109781     0.899182237     0.250000000
C254_C254_C2       C     0.610109781     0.899182237     0.750000000
C255_C255_C2       C     0.569516869     0.861804152     0.250000000
C256_C256_C2       C     0.569516869     0.861804152     0.750000000
C257_C257_C2       C     0.628910647     0.097501996     0.250000000
C258_C258_C2       C     0.628910647     0.097501996     0.750000000
C259_C259_C2       C     0.674373120     0.115312468     0.250000000
C260_C260_C2       C     0.674373120     0.115312468     0.750000000
C261_C261_C2       C     0.699710404     0.160058577     0.250000000
C262_C262_C2       C     0.699710404     0.160058577     0.750000000
C263_C263_C2       C     0.635222221     0.165538061     0.250000000
C264_C264_C2       C     0.635222221     0.165538061     0.750000000
C265_C265_C2       C     0.679986237     0.185350986     0.250000000
C266_C266_C2       C     0.679986237     0.185350986     0.750000000
C267_C267_C2       C     0.422861068     0.058130802     0.250000000
C268_C268_C2       C     0.422861068     0.058130802     0.750000000
C269_C269_C2       C     0.386923698     0.060567727     0.250000000
C270_C270_C2       C     0.386923698     0.060567727     0.750000000
C271_C271_C2       C     0.467523000     0.134773052     0.250000000
C272_C272_C2       C     0.467523000     0.134773052     0.750000000
C273_C273_C2       C     0.389890219     0.100817763     0.250000000
C274_C274_C2       C     0.389890219     0.100817763     0.750000000
C275_C275_C2       C     0.430483131     0.138195848     0.250000000
C276_C276_C2       C     0.430483131     0.138195848     0.750000000
C277_C277_Q        C     0.765160533     0.233501885     0.250000000
C278_C278_Q        C     0.765160533     0.233501885     0.750000000
C279_C279_Q        C     0.749040094     0.182310002     0.250000000
C280_C280_Q        C     0.749040094     0.182310002     0.750000000
C281_C281_Q        C     0.616534247     0.828631366     0.250000000
C282_C282_Q        C     0.616534247     0.828631366     0.750000000
C283_C283_Q        C     0.566730092     0.817689998     0.250000000
C284_C284_Q        C     0.566730092     0.817689998     0.750000000
C285_C285_Q        C     0.234839467     0.766498115     0.250000000
C286_C286_Q        C     0.234839467     0.766498115     0.750000000
C287_C287_Q        C     0.250959906     0.817689998     0.250000000
C288_C288_Q        C     0.250959906     0.817689998     0.750000000
C289_C289_Q        C     0.383465753     0.171368634     0.250000000
C290_C290_Q        C     0.383465753     0.171368634     0.750000000
C291_C291_Q        C     0.433269908     0.182310002     0.250000000
C292_C292_Q        C     0.433269908     0.182310002     0.750000000
C293_C293_C2       C     0.051023384     0.458025673     0.250000000
C294_C294_C2       C     0.051023384     0.458025673     0.750000000
C295_C295_C2       C     0.097501996     0.468591348     0.250000000
C296_C296_C2       C     0.097501996     0.468591348     0.750000000
C297_C297_C2       C     0.091246187     0.528415743     0.250000000
C298_C298_C2       C     0.091246187     0.528415743     0.750000000
C299_C299_C2       C     0.980130663     0.411043816     0.250000000
C300_C300_C2       C     0.980130663     0.411043816     0.750000000
C301_C301_C2       C     0.907439610     0.369280600     0.250000000
C302_C302_C2       C     0.907439610     0.369280600     0.750000000
C303_C303_C2       C     0.922073858     0.416849382     0.250000000
C304_C304_C2       C     0.922073858     0.416849382     0.750000000
C305_C305_C2       C     0.077926142     0.583150618     0.250000000
C306_C306_C2       C     0.077926142     0.583150618     0.750000000
C307_C307_C2       C     0.058130802     0.635269734     0.250000000
C308_C308_C2       C     0.058130802     0.635269734     0.750000000
C309_C309_C2       C     0.019869337     0.588956184     0.250000000
C310_C310_C2       C     0.019869337     0.588956184     0.750000000
C311_C311_C2       C     0.908753813     0.471584257     0.250000000
C312_C312_C2       C     0.908753813     0.471584257     0.750000000
C313_C313_C2       C     0.902498004     0.531408652     0.250000000
C314_C314_C2       C     0.902498004     0.531408652     0.750000000
C315_C315_C2       C     0.948976616     0.541974327     0.250000000
C316_C316_C2       C     0.948976616     0.541974327     0.750000000
C317_C317_C2       C     0.941869198     0.364730266     0.250000000
C318_C318_C2       C     0.941869198     0.364730266     0.750000000
C319_C319_C2       C     0.939432273     0.326355971     0.250000000
C320_C320_C2       C     0.939432273     0.326355971     0.750000000
C321_C321_C2       C     0.865226948     0.332749948     0.250000000
C322_C322_C2       C     0.865226948     0.332749948     0.750000000
C323_C323_C2       C     0.899182237     0.289072456     0.250000000
C324_C324_C2       C     0.899182237     0.289072456     0.750000000
C325_C325_C2       C     0.861804152     0.292287282     0.250000000
C326_C326_C2       C     0.861804152     0.292287282     0.750000000
C327_C327_C2       C     0.122634201     0.510974349     0.250000000
C328_C328_C2       C     0.122634201     0.510974349     0.750000000
C329_C329_C2       C     0.165538061     0.530315840     0.250000000
C330_C330_C2       C     0.165538061     0.530315840     0.750000000
C331_C331_C2       C     0.115312468     0.440939347     0.250000000
C332_C332_C2       C     0.115312468     0.440939347     0.750000000
C333_C333_C2       C     0.185350986     0.505364749     0.250000000
C334_C334_C2       C     0.185350986     0.505364749     0.750000000
C335_C335_C2       C     0.160058577     0.460348173     0.250000000
C336_C336_C2       C     0.160058577     0.460348173     0.750000000
C337_C337_C2       C     0.092560390     0.630719400     0.250000000
C338_C338_C2       C     0.092560390     0.630719400     0.750000000
C339_C339_C2       C     0.134773052     0.667250052     0.250000000
C340_C340_C2       C     0.134773052     0.667250052     0.750000000
C341_C341_C2       C     0.138195848     0.707712718     0.250000000
C342_C342_C2       C     0.138195848     0.707712718     0.750000000
C343_C343_C2       C     0.060567727     0.673644029     0.250000000
C344_C344_C2       C     0.060567727     0.673644029     0.750000000
C345_C345_C2       C     0.100817763     0.710927544     0.250000000
C346_C346_C2       C     0.100817763     0.710927544     0.750000000
C347_C347_C2       C     0.877365799     0.489025651     0.250000000
C348_C348_C2       C     0.877365799     0.489025651     0.750000000
C349_C349_C2       C     0.834461939     0.469684160     0.250000000
C350_C350_C2       C     0.834461939     0.469684160     0.750000000
C351_C351_C2       C     0.884687532     0.559060653     0.250000000
C352_C352_C2       C     0.884687532     0.559060653     0.750000000
C353_C353_C2       C     0.814649014     0.494635251     0.250000000
C354_C354_C2       C     0.814649014     0.494635251     0.750000000
C355_C355_C2       C     0.839941423     0.539651827     0.250000000
C356_C356_C2       C     0.839941423     0.539651827     0.750000000
C357_C357_Q        C     0.171368634     0.787902881     0.250000000
C358_C358_Q        C     0.171368634     0.787902881     0.750000000
C359_C359_Q        C     0.182310002     0.749040094     0.250000000
C360_C360_Q        C     0.182310002     0.749040094     0.750000000
C361_C361_Q        C     0.233501885     0.468341352     0.250000000
C362_C362_Q        C     0.233501885     0.468341352     0.750000000
C363_C363_Q        C     0.182310002     0.433269908     0.250000000
C364_C364_Q        C     0.182310002     0.433269908     0.750000000
C365_C365_Q        C     0.828631366     0.212097119     0.250000000
C366_C366_Q        C     0.828631366     0.212097119     0.750000000
C367_C367_Q        C     0.817689998     0.250959906     0.250000000
C368_C368_Q        C     0.817689998     0.250959906     0.750000000
C369_C369_Q        C     0.766498115     0.531658648     0.250000000
C370_C370_Q        C     0.766498115     0.531658648     0.750000000
C371_C371_Q        C     0.817689998     0.566730092     0.250000000
C372_C372_Q        C     0.817689998     0.566730092     0.750000000
N373_N373_C1       N     0.461269721     0.526984469     0.249969590
N374_N374_C1       N     0.461269721     0.526984469     0.749969590
N375_N375_C1       N     0.553519917     0.560301362     0.249971226
N376_N376_C1       N     0.553519917     0.560301362     0.749971226
N377_N377_C1       N     0.446480081     0.439698635     0.249966629
N378_N378_C1       N     0.446480081     0.439698635     0.749966629
N379_N379_C1       N     0.538730276     0.473015529     0.249968264
N380_N380_C1       N     0.538730276     0.473015529     0.749968264
N381_N381_C2       N     0.526452102     0.965363160     0.250000000
N382_N382_C2       N     0.526452102     0.965363160     0.750000000
N383_N383_C2       N     0.444732694     0.949458155     0.250000000
N384_N384_C2       N     0.444732694     0.949458155     0.750000000
N385_N385_C2       N     0.555267306     0.050541845     0.250000000
N386_N386_C2       N     0.555267306     0.050541845     0.750000000
N387_N387_C2       N     0.473547898     0.034636840     0.250000000
N388_N388_C2       N     0.473547898     0.034636840     0.750000000
N389_N389_C2       N     0.599636284     0.019333322     0.250000000
N390_N390_C2       N     0.599636284     0.019333322     0.750000000
N391_N391_C2       N     0.464799161     0.896112027     0.250000000
N392_N392_C2       N     0.464799161     0.896112027     0.750000000
N393_N393_C2       N     0.400363716     0.980666678     0.250000000
N394_N394_C2       N     0.400363716     0.980666678     0.750000000
N395_N395_C2       N     0.535200839     0.103887973     0.250000000
N396_N396_C2       N     0.535200839     0.103887973     0.750000000
N397_N397_Q        N     0.779954316     0.269707345     0.250000000
N398_N398_Q        N     0.779954316     0.269707345     0.750000000
N399_N399_Q        N     0.649799517     0.832452209     0.250000000
N400_N400_Q        N     0.649799517     0.832452209     0.750000000
N401_N401_Q        N     0.220045684     0.730292655     0.250000000
N402_N402_Q        N     0.220045684     0.730292655     0.750000000
N403_N403_Q        N     0.350200483     0.167547791     0.250000000
N404_N404_Q        N     0.350200483     0.167547791     0.750000000
N405_N405_C2       N     0.050541845     0.495274540     0.250000000
N406_N406_C2       N     0.050541845     0.495274540     0.750000000
N407_N407_C2       N     0.965363160     0.438911058     0.250000000
N408_N408_C2       N     0.965363160     0.438911058     0.750000000
N409_N409_C2       N     0.034636840     0.561088942     0.250000000
N410_N410_C2       N     0.034636840     0.561088942     0.750000000
N411_N411_C2       N     0.949458155     0.504725460     0.250000000
N412_N412_C2       N     0.949458155     0.504725460     0.750000000
N413_N413_C2       N     0.103887973     0.568687134     0.250000000
N414_N414_C2       N     0.103887973     0.568687134     0.750000000
N415_N415_C2       N     0.019333322     0.419697037     0.250000000
N416_N416_C2       N     0.019333322     0.419697037     0.750000000
N417_N417_C2       N     0.896112027     0.431312866     0.250000000
N418_N418_C2       N     0.896112027     0.431312866     0.750000000
N419_N419_C2       N     0.980666678     0.580302963     0.250000000
N420_N420_C2       N     0.980666678     0.580302963     0.750000000
N421_N421_Q        N     0.167547791     0.817347308     0.250000000
N422_N422_Q        N     0.167547791     0.817347308     0.750000000
N423_N423_Q        N     0.269707345     0.489753029     0.250000000
N424_N424_Q        N     0.269707345     0.489753029     0.750000000
N425_N425_Q        N     0.832452209     0.182652692     0.250000000
N426_N426_Q        N     0.832452209     0.182652692     0.750000000
N427_N427_Q        N     0.730292655     0.510246971     0.250000000
N428_N428_Q        N     0.730292655     0.510246971     0.750000000

loop_
_geom_bond_atom_site_label_1
_geom_bond_atom_site_label_2
_geom_bond_distance
H1_C1      N373_C1    1.00000
H2_C1      N374_C1    1.00000
H3_C1      N379_C1    1.00000
H4_C1      N380_C1    1.00000
H5_Q       C205_Q     1.11046
H6_Q       C206_Q     1.11046
H7_Q       C207_Q     1.11046
H8_Q       C208_Q     1.11046
H9_Q       C209_Q     1.11046
H10_Q      C210_Q     1.11046
H11_Q      C211_Q     1.11046
H12_Q      C212_Q     1.11046
H13_R      C177_C1    1.09920
H14_R      C178_C1    1.09920
H15_R      N427_Q     1.14382
H15_R      C201_C1    1.09920
H16_R      C202_C1    1.09920
H16_R      N428_Q     1.14382
H17_R      C189_C1    1.09920
H18_R      C190_C1    1.09920
H19_R      N423_Q     1.14401
H19_R      C163_C1    1.09920
H20_R      C164_C1    1.09920
H20_R      N424_Q     1.14401
H21_R      C199_C1    1.09920
H22_R      C200_C1    1.09920
H23_R      C187_C1    1.09920
H24_R      C188_C1    1.09920
H25_R      C165_C1    1.09920
H26_R      C166_C1    1.09920
H27_R      C175_C1    1.09920
H28_R      C176_C1    1.09920
H29_R      C173_C1    1.09920
H30_R      C174_C1    1.09920
H31_R      C197_C1    1.09920
H32_R      C198_C1    1.09920
H33_R      C185_C1    1.09920
H34_R      C186_C1    1.09920
H35_R      C159_C1    1.09920
H36_R      C160_C1    1.09920
H37_R      C171_C1    1.09920
H38_R      C172_C1    1.09920
H39_R      C195_C1    1.09920
H40_R      C196_C1    1.09920
H41_R      C183_C1    1.09920
H42_R      C184_C1    1.09920
H43_R      C161_C1    1.09920
H44_R      C162_C1    1.09920
H45_R      C151_C1    1.09188
H46_R      C152_C1    1.09188
H47_R      C121_C1    1.09188
H48_R      C122_C1    1.09188
H49_R      C141_C1    1.09188
H50_R      C142_C1    1.09188
H51_R      C131_C1    1.09188
H52_R      C132_C1    1.09188
H53_R      C153_C1    1.10115
H54_R      C154_C1    1.10115
H55_R      C133_C1    1.10115
H56_R      C134_C1    1.10115
H57_R      C119_C1    1.10115
H58_R      C120_C1    1.10115
H59_R      C139_C1    1.10115
H60_R      C140_C1    1.10115
H61_C2     N381_C2    1.00000
H62_C2     N382_C2    1.00000
H63_C2     N387_C2    1.00000
H64_C2     N388_C2    1.00000
H65_R      C259_C2    1.10575
H66_R      C260_C2    1.10575
H67_R      C271_C2    1.10575
H68_R      C272_C2    1.10575
H69_R      C241_C2    1.10575
H70_R      C242_C2    1.10575
H71_R      C251_C2    1.10575
H72_R      C252_C2    1.10575
H73_R      C273_C2    1.01111
H74_R      C274_C2    1.01111
H75_R      C265_C2    1.01111
H76_R      C266_C2    1.01111
H77_R      C253_C2    1.01111
H78_R      C254_C2    1.01111
H79_R      C243_C2    1.01111
H80_R      C244_C2    1.01111
H81_R      C239_C2    1.14934
H82_R      C240_C2    1.14934
H83_R      C249_C2    1.14934
H84_R      C250_C2    1.14934
H85_R      C263_C2    1.14934
H86_R      C264_C2    1.14934
H87_R      C269_C2    1.14934
H88_R      C270_C2    1.14934
H89_C2     N405_C2    1.00000
H90_C2     N406_C2    1.00000
H91_C2     N411_C2    1.00000
H92_C2     N412_C2    1.00000
H93_R      C339_C2    1.10575
H94_R      C340_C2    1.10575
H95_R      C351_C2    1.10575
H96_R      C352_C2    1.10575
H97_R      C321_C2    1.10575
H98_R      C322_C2    1.10575
H99_R      C331_C2    1.10575
H100_R     C332_C2    1.10575
H101_R     C353_C2    1.01111
H102_R     C354_C2    1.01111
H103_R     C345_C2    1.01111
H104_R     C346_C2    1.01111
H105_R     C333_C2    1.01111
H106_R     C334_C2    1.01111
H107_R     C323_C2    1.01111
H108_R     C324_C2    1.01111
H109_R     C319_C2    1.14934
H110_R     C320_C2    1.14934
H111_R     C329_C2    1.14934
H112_R     C330_C2    1.14934
H113_R     C343_C2    1.14934
H114_R     C344_C2    1.14934
H115_R     C349_C2    1.14934
H116_R     C350_C2    1.14934
C117_C1    N373_C1    1.41380
C117_C1    C127_C1    1.36356
C117_C1    C119_C1    1.49465
C118_C1    N374_C1    1.41380
C118_C1    C128_C1    1.36356
C118_C1    C120_C1    1.49465
C119_C1    C121_C1    1.34895
C119_C1    C117_C1    1.49465
C119_C1    H57_R      1.10115
C120_C1    C122_C1    1.34895
C120_C1    C118_C1    1.49465
C120_C1    H58_R      1.10115
C121_C1    H47_R      1.09188
C121_C1    C123_C1    1.49465
C121_C1    C119_C1    1.34895
C122_C1    H48_R      1.09188
C122_C1    C124_C1    1.49465
C122_C1    C120_C1    1.34895
C123_C1    C125_C1    1.35714
C123_C1    N373_C1    1.41380
C123_C1    C121_C1    1.49465
C124_C1    C126_C1    1.35714
C124_C1    N374_C1    1.41380
C124_C1    C122_C1    1.49465
C125_C1    C157_C1    1.54000
C125_C1    C137_C1    1.36356
C125_C1    C123_C1    1.35714
C126_C1    C158_C1    1.54000
C126_C1    C138_C1    1.36356
C126_C1    C124_C1    1.35714
C127_C1    C169_C1    1.54000
C127_C1    C117_C1    1.36356
C127_C1    C129_C1    1.35714
C128_C1    C170_C1    1.54000
C128_C1    C118_C1    1.36356
C128_C1    C130_C1    1.35714
C129_C1    C127_C1    1.35714
C129_C1    N375_C1    1.41380
C129_C1    C131_C1    1.49465
C130_C1    C128_C1    1.35714
C130_C1    N376_C1    1.41380
C130_C1    C132_C1    1.49465
C131_C1    C133_C1    1.34895
C131_C1    C129_C1    1.49465
C131_C1    H51_R      1.09188
C132_C1    C134_C1    1.34895
C132_C1    C130_C1    1.49465
C132_C1    H52_R      1.09188
C133_C1    C135_C1    1.49465
C133_C1    C131_C1    1.34895
C133_C1    H55_R      1.10115
C134_C1    C136_C1    1.49465
C134_C1    C132_C1    1.34895
C134_C1    H56_R      1.10115
C135_C1    N375_C1    1.41380
C135_C1    C145_C1    1.36356
C135_C1    C133_C1    1.49465
C136_C1    N376_C1    1.41380
C136_C1    C146_C1    1.36356
C136_C1    C134_C1    1.49465
C137_C1    N377_C1    1.41380
C137_C1    C139_C1    1.49465
C137_C1    C125_C1    1.36356
C138_C1    N378_C1    1.41380
C138_C1    C140_C1    1.49465
C138_C1    C126_C1    1.36356
C139_C1    C141_C1    1.34895
C139_C1    C137_C1    1.49465
C139_C1    H59_R      1.10115
C140_C1    C142_C1    1.34895
C140_C1    C138_C1    1.49465
C140_C1    H60_R      1.10115
C141_C1    H49_R      1.09188
C141_C1    C139_C1    1.34895
C141_C1    C143_C1    1.49465
C142_C1    H50_R      1.09188
C142_C1    C140_C1    1.34895
C142_C1    C144_C1    1.49465
C143_C1    N377_C1    1.41380
C143_C1    C141_C1    1.49465
C143_C1    C147_C1    1.35714
C144_C1    N378_C1    1.41380
C144_C1    C142_C1    1.49465
C144_C1    C148_C1    1.35714
C145_C1    C193_C1    1.54000
C145_C1    C149_C1    1.35714
C145_C1    C135_C1    1.36356
C146_C1    C194_C1    1.54000
C146_C1    C150_C1    1.35714
C146_C1    C136_C1    1.36356
C147_C1    C181_C1    1.54000
C147_C1    C155_C1    1.36356
C147_C1    C143_C1    1.35714
C148_C1    C182_C1    1.54000
C148_C1    C156_C1    1.36356
C148_C1    C144_C1    1.35714
C149_C1    N379_C1    1.41380
C149_C1    C151_C1    1.49465
C149_C1    C145_C1    1.35714
C150_C1    N380_C1    1.41380
C150_C1    C152_C1    1.49465
C150_C1    C146_C1    1.35714
C151_C1    C153_C1    1.34895
C151_C1    C149_C1    1.49465
C151_C1    H45_R      1.09188
C152_C1    C154_C1    1.34895
C152_C1    C150_C1    1.49465
C152_C1    H46_R      1.09188
C153_C1    C155_C1    1.49465
C153_C1    C151_C1    1.34895
C153_C1    H53_R      1.10115
C154_C1    C156_C1    1.49465
C154_C1    C152_C1    1.34895
C154_C1    H54_R      1.10115
C155_C1    N379_C1    1.41380
C155_C1    C153_C1    1.49465
C155_C1    C147_C1    1.36356
C156_C1    N380_C1    1.41380
C156_C1    C154_C1    1.49465
C156_C1    C148_C1    1.36356
C157_C1    C159_C1    1.39516
C157_C1    C161_C1    1.39483
C157_C1    C125_C1    1.54000
C158_C1    C160_C1    1.39516
C158_C1    C162_C1    1.39483
C158_C1    C126_C1    1.54000
C159_C1    C163_C1    1.39471
C159_C1    H35_R      1.09920
C159_C1    C157_C1    1.39516
C160_C1    C164_C1    1.39471
C160_C1    H36_R      1.09920
C160_C1    C158_C1    1.39516
C161_C1    C165_C1    1.39514
C161_C1    C157_C1    1.39483
C161_C1    H43_R      1.09920
C162_C1    C166_C1    1.39514
C162_C1    C158_C1    1.39483
C162_C1    H44_R      1.09920
C163_C1    N423_Q     1.74495
C163_C1    C167_C1    1.39543
C163_C1    C159_C1    1.39471
C163_C1    H19_R      1.09920
C164_C1    C160_C1    1.39471
C164_C1    H20_R      1.09920
C164_C1    N424_Q     1.74495
C164_C1    C168_C1    1.39543
C165_C1    C167_C1    1.39483
C165_C1    H25_R      1.09920
C165_C1    C161_C1    1.39514
C166_C1    C168_C1    1.39483
C166_C1    H26_R      1.09920
C166_C1    C162_C1    1.39514
C167_C1    C211_Q     1.55000
C167_C1    C165_C1    1.39483
C167_C1    C163_C1    1.39543
C168_C1    C164_C1    1.39543
C168_C1    C212_Q     1.55000
C168_C1    C166_C1    1.39483
C169_C1    C127_C1    1.54000
C169_C1    C173_C1    1.39516
C169_C1    C171_C1    1.39483
C170_C1    C128_C1    1.54000
C170_C1    C174_C1    1.39516
C170_C1    C172_C1    1.39483
C171_C1    C169_C1    1.39483
C171_C1    H37_R      1.09920
C171_C1    C175_C1    1.39514
C172_C1    C170_C1    1.39483
C172_C1    H38_R      1.09920
C172_C1    C176_C1    1.39514
C173_C1    C169_C1    1.39516
C173_C1    C177_C1    1.39471
C173_C1    H29_R      1.09920
C174_C1    C170_C1    1.39516
C174_C1    C178_C1    1.39471
C174_C1    H30_R      1.09920
C175_C1    C179_C1    1.39483
C175_C1    C171_C1    1.39514
C175_C1    H27_R      1.09920
C176_C1    C180_C1    1.39483
C176_C1    C172_C1    1.39514
C176_C1    H28_R      1.09920
C177_C1    C179_C1    1.39543
C177_C1    C173_C1    1.39471
C177_C1    H13_R      1.09920
C178_C1    C174_C1    1.39471
C178_C1    H14_R      1.09920
C178_C1    C180_C1    1.39543
C179_C1    C205_Q     1.55000
C179_C1    C177_C1    1.39543
C179_C1    C175_C1    1.39483
C180_C1    C178_C1    1.39543
C180_C1    C206_Q     1.55000
C180_C1    C176_C1    1.39483
C181_C1    C185_C1    1.39516
C181_C1    C183_C1    1.39483
C181_C1    C147_C1    1.54000
C182_C1    C186_C1    1.39516
C182_C1    C184_C1    1.39483
C182_C1    C148_C1    1.54000
C183_C1    C187_C1    1.39514
C183_C1    C181_C1    1.39483
C183_C1    H41_R      1.09920
C184_C1    C188_C1    1.39514
C184_C1    C182_C1    1.39483
C184_C1    H42_R      1.09920
C185_C1    C189_C1    1.39471
C185_C1    H33_R      1.09920
C185_C1    C181_C1    1.39516
C186_C1    C190_C1    1.39471
C186_C1    H34_R      1.09920
C186_C1    C182_C1    1.39516
C187_C1    C191_C1    1.39483
C187_C1    H23_R      1.09920
C187_C1    C183_C1    1.39514
C188_C1    C192_C1    1.39483
C188_C1    H24_R      1.09920
C188_C1    C184_C1    1.39514
C189_C1    C191_C1    1.39543
C189_C1    C185_C1    1.39471
C189_C1    H17_R      1.09920
C190_C1    C186_C1    1.39471
C190_C1    H18_R      1.09920
C190_C1    C192_C1    1.39543
C191_C1    C207_Q     1.55000
C191_C1    C189_C1    1.39543
C191_C1    C187_C1    1.39483
C192_C1    C190_C1    1.39543
C192_C1    C208_Q     1.55000
C192_C1    C188_C1    1.39483
C193_C1    C145_C1    1.54000
C193_C1    C197_C1    1.39516
C193_C1    C195_C1    1.39483
C194_C1    C146_C1    1.54000
C194_C1    C198_C1    1.39516
C194_C1    C196_C1    1.39483
C195_C1    C193_C1    1.39483
C195_C1    H39_R      1.09920
C195_C1    C199_C1    1.39514
C196_C1    C194_C1    1.39483
C196_C1    H40_R      1.09920
C196_C1    C200_C1    1.39514
C197_C1    C193_C1    1.39516
C197_C1    C201_C1    1.39471
C197_C1    H31_R      1.09920
C198_C1    C194_C1    1.39516
C198_C1    C202_C1    1.39471
C198_C1    H32_R      1.09920
C199_C1    C203_C1    1.39483
C199_C1    C195_C1    1.39514
C199_C1    H21_R      1.09920
C200_C1    C204_C1    1.39483
C200_C1    C196_C1    1.39514
C200_C1    H22_R      1.09920
C201_C1    N427_Q     1.74488
C201_C1    C203_C1    1.39543
C201_C1    C197_C1    1.39471
C201_C1    H15_R      1.09920
C202_C1    C198_C1    1.39471
C202_C1    H16_R      1.09920
C202_C1    N428_Q     1.74488
C202_C1    C204_C1    1.39543
C203_C1    C209_Q     1.55000
C203_C1    C201_C1    1.39543
C203_C1    C199_C1    1.39483
C204_C1    C202_C1    1.39543
C204_C1    C210_Q     1.55000
C204_C1    C200_C1    1.39483
C205_Q     C179_C1    1.55000
C205_Q     H5_Q       1.11046
C205_Q     C283_Q     1.26160
C206_Q     C180_C1    1.55000
C206_Q     H6_Q       1.11046
C206_Q     C284_Q     1.26160
C207_Q     C291_Q     1.26160
C207_Q     C191_C1    1.55000
C207_Q     H7_Q       1.11046
C208_Q     C292_Q     1.26160
C208_Q     C192_C1    1.55000
C208_Q     H8_Q       1.11046
C209_Q     C203_C1    1.55000
C209_Q     H9_Q       1.11046
C210_Q     C204_C1    1.55000
C210_Q     H10_Q      1.11046
C211_Q     C167_C1    1.55000
C211_Q     H11_Q      1.11046
C212_Q     C168_C1    1.55000
C212_Q     H12_Q      1.11046
C213_C2    N391_C2    1.28712
C213_C2    N381_C2    1.36017
C213_C2    C215_C2    1.53097
C214_C2    N392_C2    1.28712
C214_C2    N382_C2    1.36017
C214_C2    C216_C2    1.53097
C215_C2    C251_C2    1.43948
C215_C2    C213_C2    1.53097
C215_C2    C247_C2    1.33927
C216_C2    C252_C2    1.43948
C216_C2    C214_C2    1.53097
C216_C2    C248_C2    1.33927
C217_C2    N381_C2    1.36044
C217_C2    N389_C2    1.29415
C217_C2    C247_C2    1.55487
C218_C2    N382_C2    1.36044
C218_C2    N390_C2    1.29415
C218_C2    C248_C2    1.55487
C219_C2    C237_C2    1.55487
C219_C2    N391_C2    1.29415
C219_C2    N383_C2    1.36044
C220_C2    C238_C2    1.55487
C220_C2    N392_C2    1.29415
C220_C2    N384_C2    1.36044
C221_C2    C241_C2    1.43948
C221_C2    C237_C2    1.33927
C221_C2    C223_C2    1.53097
C222_C2    C242_C2    1.43948
C222_C2    C238_C2    1.33927
C222_C2    C224_C2    1.53097
C223_C2    C221_C2    1.53097
C223_C2    N393_C2    1.28712
C223_C2    N383_C2    1.36017
C224_C2    C222_C2    1.53097
C224_C2    N394_C2    1.28712
C224_C2    N384_C2    1.36017
C225_C2    N389_C2    1.28712
C225_C2    N385_C2    1.36017
C225_C2    C257_C2    1.53097
C226_C2    N390_C2    1.28712
C226_C2    N386_C2    1.36017
C226_C2    C258_C2    1.53097
C227_C2    C229_C2    1.55487
C227_C2    C263_C2    1.35015
C227_C2    C257_C2    1.33927
C228_C2    C230_C2    1.55487
C228_C2    C264_C2    1.35015
C228_C2    C258_C2    1.33927
C229_C2    N395_C2    1.29415
C229_C2    N385_C2    1.36044
C229_C2    C227_C2    1.55487
C230_C2    N396_C2    1.29415
C230_C2    N386_C2    1.36044
C230_C2    C228_C2    1.55487
C231_C2    N393_C2    1.29415
C231_C2    N387_C2    1.36044
C231_C2    C267_C2    1.55487
C232_C2    N394_C2    1.29415
C232_C2    N388_C2    1.36044
C232_C2    C268_C2    1.55487
C233_C2    C271_C2    1.43948
C233_C2    C267_C2    1.33927
C233_C2    C235_C2    1.53097
C234_C2    C272_C2    1.43948
C234_C2    C268_C2    1.33927
C234_C2    C236_C2    1.53097
C235_C2    N395_C2    1.28712
C235_C2    N387_C2    1.36017
C235_C2    C233_C2    1.53097
C236_C2    N396_C2    1.28712
C236_C2    N388_C2    1.36017
C236_C2    C234_C2    1.53097
C237_C2    C239_C2    1.35015
C237_C2    C221_C2    1.33927
C237_C2    C219_C2    1.55487
C238_C2    C240_C2    1.35015
C238_C2    C222_C2    1.33927
C238_C2    C220_C2    1.55487
C239_C2    C243_C2    1.40951
C239_C2    C237_C2    1.35015
C239_C2    H81_R      1.14934
C240_C2    C244_C2    1.40951
C240_C2    C238_C2    1.35015
C240_C2    H82_R      1.14934
C241_C2    C245_C2    1.40997
C241_C2    C221_C2    1.43948
C241_C2    H69_R      1.10575
C242_C2    C246_C2    1.40997
C242_C2    C222_C2    1.43948
C242_C2    H70_R      1.10575
C243_C2    H79_R      1.01111
C243_C2    C245_C2    1.41796
C243_C2    C239_C2    1.40951
C244_C2    H80_R      1.01111
C244_C2    C246_C2    1.41796
C244_C2    C240_C2    1.40951
C245_C2    C287_Q     1.55234
C245_C2    C243_C2    1.41796
C245_C2    C241_C2    1.40997
C246_C2    C288_Q     1.55234
C246_C2    C244_C2    1.41796
C246_C2    C242_C2    1.40997
C247_C2    C215_C2    1.33927
C247_C2    C217_C2    1.55487
C247_C2    C249_C2    1.35015
C248_C2    C216_C2    1.33927
C248_C2    C218_C2    1.55487
C248_C2    C250_C2    1.35015
C249_C2    C253_C2    1.40951
C249_C2    C247_C2    1.35015
C249_C2    H83_R      1.14934
C250_C2    C254_C2    1.40951
C250_C2    C248_C2    1.35015
C250_C2    H84_R      1.14934
C251_C2    C215_C2    1.43948
C251_C2    H71_R      1.10575
C251_C2    C255_C2    1.40997
C252_C2    C216_C2    1.43948
C252_C2    H72_R      1.10575
C252_C2    C256_C2    1.40997
C253_C2    C255_C2    1.41796
C253_C2    C249_C2    1.40951
C253_C2    H77_R      1.01111
C254_C2    C256_C2    1.41796
C254_C2    C250_C2    1.40951
C254_C2    H78_R      1.01111
C255_C2    C251_C2    1.40997
C255_C2    C283_Q     1.55234
C255_C2    C253_C2    1.41796
C256_C2    C252_C2    1.40997
C256_C2    C284_Q     1.55234
C256_C2    C254_C2    1.41796
C257_C2    C259_C2    1.43948
C257_C2    C227_C2    1.33927
C257_C2    C225_C2    1.53097
C258_C2    C260_C2    1.43948
C258_C2    C228_C2    1.33927
C258_C2    C226_C2    1.53097
C259_C2    C261_C2    1.40997
C259_C2    C257_C2    1.43948
C259_C2    H65_R      1.10575
C260_C2    C262_C2    1.40997
C260_C2    C258_C2    1.43948
C260_C2    H66_R      1.10575
C261_C2    C259_C2    1.40997
C261_C2    C265_C2    1.41796
C261_C2    C279_Q     1.55234
C262_C2    C260_C2    1.40997
C262_C2    C266_C2    1.41796
C262_C2    C280_Q     1.55234
C263_C2    C227_C2    1.35015
C263_C2    C265_C2    1.40951
C263_C2    H85_R      1.14934
C264_C2    C228_C2    1.35015
C264_C2    C266_C2    1.40951
C264_C2    H86_R      1.14934
C265_C2    C263_C2    1.40951
C265_C2    C261_C2    1.41796
C265_C2    H75_R      1.01111
C266_C2    C264_C2    1.40951
C266_C2    C262_C2    1.41796
C266_C2    H76_R      1.01111
C267_C2    C269_C2    1.35015
C267_C2    C233_C2    1.33927
C267_C2    C231_C2    1.55487
C268_C2    C270_C2    1.35015
C268_C2    C234_C2    1.33927
C268_C2    C232_C2    1.55487
C269_C2    C273_C2    1.40951
C269_C2    H87_R      1.14934
C269_C2    C267_C2    1.35015
C270_C2    C274_C2    1.40951
C270_C2    H88_R      1.14934
C270_C2    C268_C2    1.35015
C271_C2    C275_C2    1.40997
C271_C2    C233_C2    1.43948
C271_C2    H67_R      1.10575
C272_C2    C276_C2    1.40997
C272_C2    C234_C2    1.43948
C272_C2    H68_R      1.10575
C273_C2    C275_C2    1.41796
C273_C2    C269_C2    1.40951
C273_C2    H73_R      1.01111
C274_C2    C276_C2    1.41796
C274_C2    C270_C2    1.40951
C274_C2    H74_R      1.01111
C275_C2    C273_C2    1.41796
C275_C2    C291_Q     1.55234
C275_C2    C271_C2    1.40997
C276_C2    C274_C2    1.41796
C276_C2    C292_Q     1.55234
C276_C2    C272_C2    1.40997
C277_Q     N397_Q     1.14384
C277_Q     C367_Q     1.68104
C277_Q     C279_Q     1.64470
C278_Q     N398_Q     1.14384
C278_Q     C368_Q     1.68104
C278_Q     C280_Q     1.64470
C279_Q     C261_C2    1.55234
C279_Q     C277_Q     1.64470
C280_Q     C262_C2    1.55234
C280_Q     C278_Q     1.64470
C281_Q     N399_Q     1.14384
C281_Q     C283_Q     1.64470
C282_Q     N400_Q     1.14384
C282_Q     C284_Q     1.64470
C283_Q     C205_Q     1.26160
C283_Q     C281_Q     1.64470
C283_Q     C255_C2    1.55234
C284_Q     C206_Q     1.26160
C284_Q     C282_Q     1.64470
C284_Q     C256_C2    1.55234
C285_Q     C359_Q     1.68104
C285_Q     N401_Q     1.14384
C285_Q     C287_Q     1.64470
C286_Q     C360_Q     1.68104
C286_Q     N402_Q     1.14384
C286_Q     C288_Q     1.64470
C287_Q     C285_Q     1.64470
C287_Q     C245_C2    1.55234
C288_Q     C286_Q     1.64470
C288_Q     C246_C2    1.55234
C289_Q     N403_Q     1.14384
C289_Q     C291_Q     1.64470
C290_Q     N404_Q     1.14384
C290_Q     C292_Q     1.64470
C291_Q     C289_Q     1.64470
C291_Q     C275_C2    1.55234
C291_Q     C207_Q     1.26160
C292_Q     C290_Q     1.64470
C292_Q     C276_C2    1.55234
C292_Q     C208_Q     1.26160
C293_C2    N415_C2    1.28712
C293_C2    N405_C2    1.36017
C293_C2    C295_C2    1.53097
C294_C2    N416_C2    1.28712
C294_C2    N406_C2    1.36017
C294_C2    C296_C2    1.53097
C295_C2    C293_C2    1.53097
C295_C2    C331_C2    1.43948
C295_C2    C327_C2    1.33927
C296_C2    C294_C2    1.53097
C296_C2    C332_C2    1.43948
C296_C2    C328_C2    1.33927
C297_C2    N413_C2    1.29415
C297_C2    N405_C2    1.36044
C297_C2    C327_C2    1.55487
C298_C2    N414_C2    1.29415
C298_C2    N406_C2    1.36044
C298_C2    C328_C2    1.55487
C299_C2    N407_C2    1.36044
C299_C2    C317_C2    1.55487
C299_C2    N415_C2    1.29415
C300_C2    N408_C2    1.36044
C300_C2    C318_C2    1.55487
C300_C2    N416_C2    1.29415
C301_C2    C321_C2    1.43948
C301_C2    C317_C2    1.33927
C301_C2    C303_C2    1.53097
C302_C2    C322_C2    1.43948
C302_C2    C318_C2    1.33927
C302_C2    C304_C2    1.53097
C303_C2    N417_C2    1.28712
C303_C2    N407_C2    1.36017
C303_C2    C301_C2    1.53097
C304_C2    N418_C2    1.28712
C304_C2    N408_C2    1.36017
C304_C2    C302_C2    1.53097
C305_C2    N413_C2    1.28712
C305_C2    N409_C2    1.36017
C305_C2    C337_C2    1.53097
C306_C2    N414_C2    1.28712
C306_C2    N410_C2    1.36017
C306_C2    C338_C2    1.53097
C307_C2    C337_C2    1.33927
C307_C2    C309_C2    1.55487
C307_C2    C343_C2    1.35015
C308_C2    C338_C2    1.33927
C308_C2    C310_C2    1.55487
C308_C2    C344_C2    1.35015
C309_C2    N419_C2    1.29415
C309_C2    N409_C2    1.36044
C309_C2    C307_C2    1.55487
C310_C2    N420_C2    1.29415
C310_C2    N410_C2    1.36044
C310_C2    C308_C2    1.55487
C311_C2    C347_C2    1.55487
C311_C2    N417_C2    1.29415
C311_C2    N411_C2    1.36044
C312_C2    C348_C2    1.55487
C312_C2    N418_C2    1.29415
C312_C2    N412_C2    1.36044
C313_C2    C347_C2    1.33927
C313_C2    C351_C2    1.43948
C313_C2    C315_C2    1.53097
C314_C2    C348_C2    1.33927
C314_C2    C352_C2    1.43948
C314_C2    C316_C2    1.53097
C315_C2    C313_C2    1.53097
C315_C2    N419_C2    1.28712
C315_C2    N411_C2    1.36017
C316_C2    C314_C2    1.53097
C316_C2    N420_C2    1.28712
C316_C2    N412_C2    1.36017
C317_C2    C319_C2    1.35015
C317_C2    C301_C2    1.33927
C317_C2    C299_C2    1.55487
C318_C2    C320_C2    1.35015
C318_C2    C302_C2    1.33927
C318_C2    C300_C2    1.55487
C319_C2    C323_C2    1.40951
C319_C2    C317_C2    1.35015
C319_C2    H109_R     1.14934
C320_C2    C324_C2    1.40951
C320_C2    C318_C2    1.35015
C320_C2    H110_R     1.14934
C321_C2    C325_C2    1.40997
C321_C2    C301_C2    1.43948
C321_C2    H97_R      1.10575
C322_C2    C326_C2    1.40997
C322_C2    C302_C2    1.43948
C322_C2    H98_R      1.10575
C323_C2    C325_C2    1.41796
C323_C2    C319_C2    1.40951
C323_C2    H107_R     1.01111
C324_C2    C326_C2    1.41796
C324_C2    C320_C2    1.40951
C324_C2    H108_R     1.01111
C325_C2    C367_Q     1.55234
C325_C2    C323_C2    1.41796
C325_C2    C321_C2    1.40997
C326_C2    C368_Q     1.55234
C326_C2    C324_C2    1.41796
C326_C2    C322_C2    1.40997
C327_C2    C297_C2    1.55487
C327_C2    C295_C2    1.33927
C327_C2    C329_C2    1.35015
C328_C2    C298_C2    1.55487
C328_C2    C296_C2    1.33927
C328_C2    C330_C2    1.35015
C329_C2    C333_C2    1.40951
C329_C2    C327_C2    1.35015
C329_C2    H111_R     1.14934
C330_C2    C334_C2    1.40951
C330_C2    C328_C2    1.35015
C330_C2    H112_R     1.14934
C331_C2    C335_C2    1.40997
C331_C2    C295_C2    1.43948
C331_C2    H99_R      1.10575
C332_C2    C336_C2    1.40997
C332_C2    C296_C2    1.43948
C332_C2    H100_R     1.10575
C333_C2    C335_C2    1.41796
C333_C2    C329_C2    1.40951
C333_C2    H105_R     1.01111
C334_C2    C336_C2    1.41796
C334_C2    C330_C2    1.40951
C334_C2    H106_R     1.01111
C335_C2    C363_Q     1.55234
C335_C2    C331_C2    1.40997
C335_C2    C333_C2    1.41796
C336_C2    C364_Q     1.55234
C336_C2    C332_C2    1.40997
C336_C2    C334_C2    1.41796
C337_C2    C307_C2    1.33927
C337_C2    C305_C2    1.53097
C337_C2    C339_C2    1.43948
C338_C2    C308_C2    1.33927
C338_C2    C306_C2    1.53097
C338_C2    C340_C2    1.43948
C339_C2    C337_C2    1.43948
C339_C2    C341_C2    1.40997
C339_C2    H93_R      1.10575
C340_C2    C338_C2    1.43948
C340_C2    C342_C2    1.40997
C340_C2    H94_R      1.10575
C341_C2    C359_Q     1.55234
C341_C2    C345_C2    1.41796
C341_C2    C339_C2    1.40997
C342_C2    C360_Q     1.55234
C342_C2    C346_C2    1.41796
C342_C2    C340_C2    1.40997
C343_C2    C307_C2    1.35015
C343_C2    C345_C2    1.40951
C343_C2    H113_R     1.14934
C344_C2    C308_C2    1.35015
C344_C2    C346_C2    1.40951
C344_C2    H114_R     1.14934
C345_C2    C343_C2    1.40951
C345_C2    C341_C2    1.41796
C345_C2    H103_R     1.01111
C346_C2    C344_C2    1.40951
C346_C2    C342_C2    1.41796
C346_C2    H104_R     1.01111
C347_C2    C349_C2    1.35015
C347_C2    C313_C2    1.33927
C347_C2    C311_C2    1.55487
C348_C2    C350_C2    1.35015
C348_C2    C314_C2    1.33927
C348_C2    C312_C2    1.55487
C349_C2    C347_C2    1.35015
C349_C2    H115_R     1.14934
C349_C2    C353_C2    1.40951
C350_C2    C348_C2    1.35015
C350_C2    H116_R     1.14934
C350_C2    C354_C2    1.40951
C351_C2    C355_C2    1.40997
C351_C2    C313_C2    1.43948
C351_C2    H95_R      1.10575
C352_C2    C356_C2    1.40997
C352_C2    C314_C2    1.43948
C352_C2    H96_R      1.10575
C353_C2    C349_C2    1.40951
C353_C2    H101_R     1.01111
C353_C2    C355_C2    1.41796
C354_C2    C350_C2    1.40951
C354_C2    H102_R     1.01111
C354_C2    C356_C2    1.41796
C355_C2    C371_Q     1.55234
C355_C2    C353_C2    1.41796
C355_C2    C351_C2    1.40997
C356_C2    C372_Q     1.55234
C356_C2    C354_C2    1.41796
C356_C2    C352_C2    1.40997
C357_Q     C359_Q     1.64470
C357_Q     N421_Q     1.14384
C358_Q     C360_Q     1.64470
C358_Q     N422_Q     1.14384
C359_Q     C357_Q     1.64470
C359_Q     C341_C2    1.55234
C359_Q     N401_Q     1.80774
C359_Q     C285_Q     1.68104
C360_Q     C358_Q     1.64470
C360_Q     C342_C2    1.55234
C360_Q     N402_Q     1.80774
C360_Q     C286_Q     1.68104
C361_Q     C363_Q     1.64470
C361_Q     N423_Q     1.14384
C362_Q     C364_Q     1.64470
C362_Q     N424_Q     1.14384
C363_Q     C335_C2    1.55234
C363_Q     C361_Q     1.64470
C364_Q     C336_C2    1.55234
C364_Q     C362_Q     1.64470
C365_Q     N425_Q     1.14384
C365_Q     C367_Q     1.64470
C366_Q     N426_Q     1.14384
C366_Q     C368_Q     1.64470
C367_Q     N397_Q     1.80774
C367_Q     C277_Q     1.68104
C367_Q     C365_Q     1.64470
C367_Q     C325_C2    1.55234
C368_Q     N398_Q     1.80774
C368_Q     C278_Q     1.68104
C368_Q     C366_Q     1.64470
C368_Q     C326_C2    1.55234
C369_Q     N427_Q     1.14384
C369_Q     C371_Q     1.64470
C370_Q     N428_Q     1.14384
C370_Q     C372_Q     1.64470
C371_Q     C369_Q     1.64470
C371_Q     C355_C2    1.55234
C372_Q     C370_Q     1.64470
C372_Q     C356_C2    1.55234
N373_C1    C123_C1    1.41380
N373_C1    C117_C1    1.41380
N373_C1    H1_C1      1.00000
N374_C1    C124_C1    1.41380
N374_C1    C118_C1    1.41380
N374_C1    H2_C1      1.00000
N375_C1    C135_C1    1.41380
N375_C1    C129_C1    1.41380
N376_C1    C136_C1    1.41380
N376_C1    C130_C1    1.41380
N377_C1    C137_C1    1.41380
N377_C1    C143_C1    1.41380
N378_C1    C138_C1    1.41380
N378_C1    C144_C1    1.41380
N379_C1    C155_C1    1.41380
N379_C1    H3_C1      1.00000
N379_C1    C149_C1    1.41380
N380_C1    C156_C1    1.41380
N380_C1    H4_C1      1.00000
N380_C1    C150_C1    1.41380
N381_C2    C213_C2    1.36017
N381_C2    C217_C2    1.36044
N381_C2    H61_C2     1.00000
N382_C2    C214_C2    1.36017
N382_C2    C218_C2    1.36044
N382_C2    H62_C2     1.00000
N383_C2    C223_C2    1.36017
N383_C2    C219_C2    1.36044
N384_C2    C224_C2    1.36017
N384_C2    C220_C2    1.36044
N385_C2    C229_C2    1.36044
N385_C2    C225_C2    1.36017
N386_C2    C230_C2    1.36044
N386_C2    C226_C2    1.36017
N387_C2    C235_C2    1.36017
N387_C2    C231_C2    1.36044
N387_C2    H63_C2     1.00000
N388_C2    C236_C2    1.36017
N388_C2    C232_C2    1.36044
N388_C2    H64_C2     1.00000
N389_C2    C217_C2    1.29415
N389_C2    C225_C2    1.28712
N390_C2    C218_C2    1.29415
N390_C2    C226_C2    1.28712
N391_C2    C219_C2    1.29415
N391_C2    C213_C2    1.28712
N392_C2    C220_C2    1.29415
N392_C2    C214_C2    1.28712
N393_C2    C223_C2    1.28712
N393_C2    C231_C2    1.29415
N394_C2    C224_C2    1.28712
N394_C2    C232_C2    1.29415
N395_C2    C235_C2    1.28712
N395_C2    C229_C2    1.29415
N396_C2    C236_C2    1.28712
N396_C2    C230_C2    1.29415
N397_Q     C277_Q     1.14384
N397_Q     C367_Q     1.80774
N398_Q     C278_Q     1.14384
N398_Q     C368_Q     1.80774
N399_Q     C281_Q     1.14384
N400_Q     C282_Q     1.14384
N401_Q     C359_Q     1.80774
N401_Q     C285_Q     1.14384
N402_Q     C360_Q     1.80774
N402_Q     C286_Q     1.14384
N403_Q     C289_Q     1.14384
N404_Q     C290_Q     1.14384
N405_C2    C293_C2    1.36017
N405_C2    C297_C2    1.36044
N405_C2    H89_C2     1.00000
N406_C2    C294_C2    1.36017
N406_C2    C298_C2    1.36044
N406_C2    H90_C2     1.00000
N407_C2    C303_C2    1.36017
N407_C2    C299_C2    1.36044
N408_C2    C304_C2    1.36017
N408_C2    C300_C2    1.36044
N409_C2    C309_C2    1.36044
N409_C2    C305_C2    1.36017
N410_C2    C310_C2    1.36044
N410_C2    C306_C2    1.36017
N411_C2    C311_C2    1.36044
N411_C2    C315_C2    1.36017
N411_C2    H91_C2     1.00000
N412_C2    C312_C2    1.36044
N412_C2    C316_C2    1.36017
N412_C2    H92_C2     1.00000
N413_C2    C305_C2    1.28712
N413_C2    C297_C2    1.29415
N414_C2    C306_C2    1.28712
N414_C2    C298_C2    1.29415
N415_C2    C293_C2    1.28712
N415_C2    C299_C2    1.29415
N416_C2    C294_C2    1.28712
N416_C2    C300_C2    1.29415
N417_C2    C311_C2    1.29415
N417_C2    C303_C2    1.28712
N418_C2    C312_C2    1.29415
N418_C2    C304_C2    1.28712
N419_C2    C309_C2    1.29415
N419_C2    C315_C2    1.28712
N420_C2    C310_C2    1.29415
N420_C2    C316_C2    1.28712
N421_Q     C357_Q     1.14384
N422_Q     C358_Q     1.14384
N423_Q     C361_Q     1.14384
N423_Q     C163_C1    1.74495
N423_Q     H19_R      1.14401
N424_Q     C164_C1    1.74495
N424_Q     H20_R      1.14401
N424_Q     C362_Q     1.14384
N425_Q     C365_Q     1.14384
N426_Q     C366_Q     1.14384
N427_Q     C369_Q     1.14384
N427_Q     C201_C1    1.74488
N427_Q     H15_R      1.14382
N428_Q     C202_C1    1.74488
N428_Q     H16_R      1.14382
N428_Q     C370_Q     1.14384
