data_T3_BENZ_COCHCHOH_OH-L2_BENZ_NH2_H_H-FESa-AA

_audit_creation_date     2025-25-02
_audit_creation_method   pyCOFBuilder
_audit_author_name       'root'

_chemical_name_common                  'T3_BENZ_COCHCHOH_OH-L2_BENZ_NH2_H_H-FESa-AA'
_cell_length_a                           57.999774
_cell_length_b                           57.999774
_cell_length_c                            7.200000
_cell_angle_alpha                        90.00
_cell_angle_beta                         90.00
_cell_angle_gamma                        90.00
_space_group_name_H-M_alt               'P 1'
_space_group_IT_number                  1

loop_
_symmetry_equiv_pos_as_xyz
   'x, y, z'

loop_
   _atom_site_label
   _atom_site_type_symbol
   _atom_site_fract_x
   _atom_site_fract_y
   _atom_site_fract_z
H1_H1_Q            H     0.052694272     0.044106518     0.250000000
H2_H2_Q            H     0.052694272     0.044106518     0.750000000
H3_H3_Q            H     0.060442323     0.085131917     0.250000000
H4_H4_Q            H     0.060442323     0.085131917     0.750000000
H5_H5_Q            H     0.007325109     0.092285774     0.250000000
H6_H6_Q            H     0.007325109     0.092285774     0.750000000
H7_H7_Q            H     0.935455499     0.023581319     0.250000000
H8_H8_Q            H     0.935455499     0.023581319     0.750000000
H9_H9_Q            H     0.896052435     0.009778629     0.250000000
H10_H10_Q          H     0.896052435     0.009778629     0.750000000
H11_H11_Q          H     0.916415621     0.960200844     0.250000000
H12_H12_Q          H     0.916415621     0.960200844     0.750000000
H13_H13_Q          H     0.011850229     0.932312162     0.250000000
H14_H14_Q          H     0.011850229     0.932312162     0.750000000
H15_H15_Q          H     0.043505241     0.905089454     0.250000000
H16_H16_Q          H     0.043505241     0.905089454     0.750000000
H17_H17_Q          H     0.076259270     0.947513382     0.250000000
H18_H18_Q          H     0.076259270     0.947513382     0.750000000
H19_H19_R          H     0.998707194     0.940476833     0.250000000
H20_H20_R          H     0.998707194     0.940476833     0.750000000
H21_H21_R          H     0.052194977     0.028641981     0.250000000
H22_H22_R          H     0.052194977     0.028641981     0.750000000
H23_H23_R          H     0.949097829     0.030881186     0.250000000
H24_H24_R          H     0.949097829     0.030881186     0.750000000
H25_H25_Q          H     0.947305728     0.455893482     0.250000000
H26_H26_Q          H     0.947305728     0.455893482     0.750000000
H27_H27_Q          H     0.939557677     0.414868083     0.250000000
H28_H28_Q          H     0.939557677     0.414868083     0.750000000
H29_H29_Q          H     0.992674891     0.407714226     0.250000000
H30_H30_Q          H     0.992674891     0.407714226     0.750000000
H31_H31_Q          H     0.064544501     0.476418681     0.250000000
H32_H32_Q          H     0.064544501     0.476418681     0.750000000
H33_H33_Q          H     0.103947565     0.490221371     0.250000000
H34_H34_Q          H     0.103947565     0.490221371     0.750000000
H35_H35_Q          H     0.083584379     0.539799156     0.250000000
H36_H36_Q          H     0.083584379     0.539799156     0.750000000
H37_H37_Q          H     0.988149771     0.567687838     0.250000000
H38_H38_Q          H     0.988149771     0.567687838     0.750000000
H39_H39_Q          H     0.956494759     0.594910546     0.250000000
H40_H40_Q          H     0.956494759     0.594910546     0.750000000
H41_H41_Q          H     0.923740730     0.552486618     0.250000000
H42_H42_Q          H     0.923740730     0.552486618     0.750000000
H43_H43_R          H     0.001292806     0.559523167     0.250000000
H44_H44_R          H     0.001292806     0.559523167     0.750000000
H45_H45_R          H     0.947805023     0.471358019     0.250000000
H46_H46_R          H     0.947805023     0.471358019     0.750000000
H47_H47_R          H     0.050902171     0.469118814     0.250000000
H48_H48_R          H     0.050902171     0.469118814     0.750000000
H49_H49_Q          H     0.205893482     0.302694272     0.250000000
H50_H50_Q          H     0.205893482     0.302694272     0.750000000
H51_H51_Q          H     0.164868083     0.310442323     0.250000000
H52_H52_Q          H     0.164868083     0.310442323     0.750000000
H53_H53_Q          H     0.157714226     0.257325109     0.250000000
H54_H54_Q          H     0.157714226     0.257325109     0.750000000
H55_H55_Q          H     0.226418681     0.185455499     0.250000000
H56_H56_Q          H     0.226418681     0.185455499     0.750000000
H57_H57_Q          H     0.240221371     0.146052435     0.250000000
H58_H58_Q          H     0.240221371     0.146052435     0.750000000
H59_H59_Q          H     0.289799156     0.166415621     0.250000000
H60_H60_Q          H     0.289799156     0.166415621     0.750000000
H61_H61_Q          H     0.317687838     0.261850229     0.250000000
H62_H62_Q          H     0.317687838     0.261850229     0.750000000
H63_H63_Q          H     0.344910546     0.293505241     0.250000000
H64_H64_Q          H     0.344910546     0.293505241     0.750000000
H65_H65_Q          H     0.302486618     0.326259270     0.250000000
H66_H66_Q          H     0.302486618     0.326259270     0.750000000
H67_H67_R          H     0.309523167     0.248707194     0.250000000
H68_H68_R          H     0.309523167     0.248707194     0.750000000
H69_H69_R          H     0.221358019     0.302194977     0.250000000
H70_H70_R          H     0.221358019     0.302194977     0.750000000
H71_H71_R          H     0.219118814     0.199097829     0.250000000
H72_H72_R          H     0.219118814     0.199097829     0.750000000
H73_H73_Q          H     0.794106518     0.197305728     0.250000000
H74_H74_Q          H     0.794106518     0.197305728     0.750000000
H75_H75_Q          H     0.835131917     0.189557677     0.250000000
H76_H76_Q          H     0.835131917     0.189557677     0.750000000
H77_H77_Q          H     0.842285774     0.242674891     0.250000000
H78_H78_Q          H     0.842285774     0.242674891     0.750000000
H79_H79_Q          H     0.773581319     0.314544501     0.250000000
H80_H80_Q          H     0.773581319     0.314544501     0.750000000
H81_H81_Q          H     0.759778629     0.353947565     0.250000000
H82_H82_Q          H     0.759778629     0.353947565     0.750000000
H83_H83_Q          H     0.710200844     0.333584379     0.250000000
H84_H84_Q          H     0.710200844     0.333584379     0.750000000
H85_H85_Q          H     0.682312162     0.238149771     0.250000000
H86_H86_Q          H     0.682312162     0.238149771     0.750000000
H87_H87_Q          H     0.655089454     0.206494759     0.250000000
H88_H88_Q          H     0.655089454     0.206494759     0.750000000
H89_H89_Q          H     0.697513382     0.173740730     0.250000000
H90_H90_Q          H     0.697513382     0.173740730     0.750000000
H91_H91_R          H     0.690476833     0.251292806     0.250000000
H92_H92_R          H     0.690476833     0.251292806     0.750000000
H93_H93_R          H     0.778641981     0.197805023     0.250000000
H94_H94_R          H     0.778641981     0.197805023     0.750000000
H95_H95_R          H     0.780881186     0.300902171     0.250000000
H96_H96_R          H     0.780881186     0.300902171     0.750000000
H97_H97_R          H     0.166648490     0.113840321     0.250000000
H98_H98_R          H     0.166648490     0.113840321     0.750000000
H99_H99_R          H     0.083351510     0.136159679     0.250000000
H100_H100_R        H     0.083351510     0.136159679     0.750000000
H101_H101_R        H     0.136159679     0.083351510     0.250000000
H102_H102_R        H     0.136159679     0.083351510     0.750000000
H103_H103_R        H     0.113840321     0.166648490     0.250000000
H104_H104_R        H     0.113840321     0.166648490     0.750000000
H105_H105_R        H     0.136159679     0.416648490     0.250000000
H106_H106_R        H     0.136159679     0.416648490     0.750000000
H107_H107_R        H     0.113840321     0.333351510     0.250000000
H108_H108_R        H     0.113840321     0.333351510     0.750000000
H109_H109_R        H     0.166648490     0.386159679     0.250000000
H110_H110_R        H     0.166648490     0.386159679     0.750000000
H111_H111_R        H     0.083351510     0.363840321     0.250000000
H112_H112_R        H     0.083351510     0.363840321     0.750000000
H113_H113_R        H     0.037341014     0.771558845     0.250000000
H114_H114_R        H     0.037341014     0.771558845     0.750000000
H115_H115_R        H     0.962658986     0.728441155     0.250000000
H116_H116_R        H     0.962658986     0.728441155     0.750000000
H117_H117_R        H     0.037341014     0.728441155     0.250000000
H118_H118_R        H     0.037341014     0.728441155     0.750000000
H119_H119_R        H     0.962658986     0.771558845     0.250000000
H120_H120_R        H     0.962658986     0.771558845     0.750000000
H121_H121_R        H     0.521558845     0.212658986     0.250000000
H122_H122_R        H     0.521558845     0.212658986     0.750000000
H123_H123_R        H     0.478441155     0.287341014     0.250000000
H124_H124_R        H     0.478441155     0.287341014     0.750000000
H125_H125_R        H     0.478441155     0.212658986     0.250000000
H126_H126_R        H     0.478441155     0.212658986     0.750000000
H127_H127_R        H     0.521558845     0.287341014     0.250000000
H128_H128_R        H     0.521558845     0.287341014     0.750000000
H129_H129_R        H     0.886159679     0.166648490     0.250000000
H130_H130_R        H     0.886159679     0.166648490     0.750000000
H131_H131_R        H     0.863840321     0.083351510     0.250000000
H132_H132_R        H     0.863840321     0.083351510     0.750000000
H133_H133_R        H     0.916648490     0.136159679     0.250000000
H134_H134_R        H     0.916648490     0.136159679     0.750000000
H135_H135_R        H     0.833351510     0.113840321     0.250000000
H136_H136_R        H     0.833351510     0.113840321     0.750000000
H137_H137_R        H     0.916648490     0.363840321     0.250000000
H138_H138_R        H     0.916648490     0.363840321     0.750000000
H139_H139_R        H     0.833351510     0.386159679     0.250000000
H140_H140_R        H     0.833351510     0.386159679     0.750000000
H141_H141_R        H     0.886159679     0.333351510     0.250000000
H142_H142_R        H     0.886159679     0.333351510     0.750000000
H143_H143_R        H     0.863840321     0.416648490     0.250000000
H144_H144_R        H     0.863840321     0.416648490     0.750000000
C145_C145_C1       C     0.993286285     0.976785428     0.250000000
C146_C146_C1       C     0.993286285     0.976785428     0.750000000
C147_C147_C1       C     0.016747551     0.982578466     0.250000000
C148_C148_C1       C     0.016747551     0.982578466     0.750000000
C149_C149_C1       C     0.023461266     0.005793038     0.250000000
C150_C150_C1       C     0.023461266     0.005793038     0.750000000
C151_C151_C1       C     0.006713715     0.023214571     0.250000000
C152_C152_C1       C     0.006713715     0.023214571     0.750000000
C153_C153_C1       C     0.983252449     0.017421534     0.250000000
C154_C154_C1       C     0.983252449     0.017421534     0.750000000
C155_C155_C1       C     0.976538734     0.994206962     0.250000000
C156_C156_C1       C     0.976538734     0.994206962     0.750000000
C157_C157_Q        C     0.013659187     0.047230509     0.250000000
C158_C158_Q        C     0.013659187     0.047230509     0.750000000
C159_C159_Q        C     0.038683081     0.056107687     0.250000000
C160_C160_Q        C     0.038683081     0.056107687     0.750000000
C161_C161_Q        C     0.043019253     0.079067418     0.250000000
C162_C162_Q        C     0.043019253     0.079067418     0.750000000
C163_C163_Q        C     0.952267585     0.988213949     0.250000000
C164_C164_Q        C     0.952267585     0.988213949     0.750000000
C165_C165_Q        C     0.932067777     0.005446688     0.250000000
C166_C166_Q        C     0.932067777     0.005446688     0.750000000
C167_C167_Q        C     0.910015981     0.997722057     0.250000000
C168_C168_Q        C     0.910015981     0.997722057     0.750000000
C169_C169_Q        C     0.034073227     0.964555542     0.250000000
C170_C170_Q        C     0.034073227     0.964555542     0.750000000
C171_C171_Q        C     0.029249142     0.938445625     0.250000000
C172_C172_Q        C     0.029249142     0.938445625     0.750000000
C173_C173_Q        C     0.046964767     0.923210525     0.250000000
C174_C174_Q        C     0.046964767     0.923210525     0.750000000
C175_C175_C1       C     0.006713715     0.523214572     0.250000000
C176_C176_C1       C     0.006713715     0.523214572     0.750000000
C177_C177_C1       C     0.983252449     0.517421534     0.250000000
C178_C178_C1       C     0.983252449     0.517421534     0.750000000
C179_C179_C1       C     0.976538734     0.494206962     0.250000000
C180_C180_C1       C     0.976538734     0.494206962     0.750000000
C181_C181_C1       C     0.993286285     0.476785429     0.250000000
C182_C182_C1       C     0.993286285     0.476785429     0.750000000
C183_C183_C1       C     0.016747551     0.482578466     0.250000000
C184_C184_C1       C     0.016747551     0.482578466     0.750000000
C185_C185_C1       C     0.023461266     0.505793038     0.250000000
C186_C186_C1       C     0.023461266     0.505793038     0.750000000
C187_C187_Q        C     0.986340813     0.452769491     0.250000000
C188_C188_Q        C     0.986340813     0.452769491     0.750000000
C189_C189_Q        C     0.961316919     0.443892313     0.250000000
C190_C190_Q        C     0.961316919     0.443892313     0.750000000
C191_C191_Q        C     0.956980747     0.420932582     0.250000000
C192_C192_Q        C     0.956980747     0.420932582     0.750000000
C193_C193_Q        C     0.047732415     0.511786051     0.250000000
C194_C194_Q        C     0.047732415     0.511786051     0.750000000
C195_C195_Q        C     0.067932223     0.494553312     0.250000000
C196_C196_Q        C     0.067932223     0.494553312     0.750000000
C197_C197_Q        C     0.089984019     0.502277943     0.250000000
C198_C198_Q        C     0.089984019     0.502277943     0.750000000
C199_C199_Q        C     0.965926773     0.535444458     0.250000000
C200_C200_Q        C     0.965926773     0.535444458     0.750000000
C201_C201_Q        C     0.970750858     0.561554375     0.250000000
C202_C202_Q        C     0.970750858     0.561554375     0.750000000
C203_C203_Q        C     0.953035233     0.576789475     0.250000000
C204_C204_Q        C     0.953035233     0.576789475     0.750000000
C205_C205_C1       C     0.273214572     0.243286285     0.250000000
C206_C206_C1       C     0.273214572     0.243286285     0.750000000
C207_C207_C1       C     0.267421534     0.266747551     0.250000000
C208_C208_C1       C     0.267421534     0.266747551     0.750000000
C209_C209_C1       C     0.244206962     0.273461266     0.250000000
C210_C210_C1       C     0.244206962     0.273461266     0.750000000
C211_C211_C1       C     0.226785429     0.256713715     0.250000000
C212_C212_C1       C     0.226785429     0.256713715     0.750000000
C213_C213_C1       C     0.232578466     0.233252449     0.250000000
C214_C214_C1       C     0.232578466     0.233252449     0.750000000
C215_C215_C1       C     0.255793038     0.226538734     0.250000000
C216_C216_C1       C     0.255793038     0.226538734     0.750000000
C217_C217_Q        C     0.202769491     0.263659187     0.250000000
C218_C218_Q        C     0.202769491     0.263659187     0.750000000
C219_C219_Q        C     0.193892313     0.288683081     0.250000000
C220_C220_Q        C     0.193892313     0.288683081     0.750000000
C221_C221_Q        C     0.170932582     0.293019253     0.250000000
C222_C222_Q        C     0.170932582     0.293019253     0.750000000
C223_C223_Q        C     0.261786051     0.202267585     0.250000000
C224_C224_Q        C     0.261786051     0.202267585     0.750000000
C225_C225_Q        C     0.244553312     0.182067777     0.250000000
C226_C226_Q        C     0.244553312     0.182067777     0.750000000
C227_C227_Q        C     0.252277943     0.160015981     0.250000000
C228_C228_Q        C     0.252277943     0.160015981     0.750000000
C229_C229_Q        C     0.285444458     0.284073227     0.250000000
C230_C230_Q        C     0.285444458     0.284073227     0.750000000
C231_C231_Q        C     0.311554375     0.279249142     0.250000000
C232_C232_Q        C     0.311554375     0.279249142     0.750000000
C233_C233_Q        C     0.326789475     0.296964767     0.250000000
C234_C234_Q        C     0.326789475     0.296964767     0.750000000
C235_C235_C1       C     0.726785428     0.256713715     0.250000000
C236_C236_C1       C     0.726785428     0.256713715     0.750000000
C237_C237_C1       C     0.732578466     0.233252449     0.250000000
C238_C238_C1       C     0.732578466     0.233252449     0.750000000
C239_C239_C1       C     0.755793038     0.226538734     0.250000000
C240_C240_C1       C     0.755793038     0.226538734     0.750000000
C241_C241_C1       C     0.773214571     0.243286285     0.250000000
C242_C242_C1       C     0.773214571     0.243286285     0.750000000
C243_C243_C1       C     0.767421534     0.266747551     0.250000000
C244_C244_C1       C     0.767421534     0.266747551     0.750000000
C245_C245_C1       C     0.744206962     0.273461266     0.250000000
C246_C246_C1       C     0.744206962     0.273461266     0.750000000
C247_C247_Q        C     0.797230509     0.236340813     0.250000000
C248_C248_Q        C     0.797230509     0.236340813     0.750000000
C249_C249_Q        C     0.806107687     0.211316919     0.250000000
C250_C250_Q        C     0.806107687     0.211316919     0.750000000
C251_C251_Q        C     0.829067418     0.206980747     0.250000000
C252_C252_Q        C     0.829067418     0.206980747     0.750000000
C253_C253_Q        C     0.738213949     0.297732415     0.250000000
C254_C254_Q        C     0.738213949     0.297732415     0.750000000
C255_C255_Q        C     0.755446688     0.317932223     0.250000000
C256_C256_Q        C     0.755446688     0.317932223     0.750000000
C257_C257_Q        C     0.747722057     0.339984019     0.250000000
C258_C258_Q        C     0.747722057     0.339984019     0.750000000
C259_C259_Q        C     0.714555542     0.215926773     0.250000000
C260_C260_Q        C     0.714555542     0.215926773     0.750000000
C261_C261_Q        C     0.688445625     0.220750858     0.250000000
C262_C262_Q        C     0.688445625     0.220750858     0.750000000
C263_C263_Q        C     0.673210525     0.203035233     0.250000000
C264_C264_Q        C     0.673210525     0.203035233     0.750000000
C265_C265_C2       C     0.148342459     0.118745407     0.250000000
C266_C266_C2       C     0.148342459     0.118745407     0.750000000
C267_C267_C2       C     0.142087866     0.142087866     0.250000000
C268_C268_C2       C     0.142087866     0.142087866     0.750000000
C269_C269_C2       C     0.118745407     0.148342459     0.250000000
C270_C270_C2       C     0.118745407     0.148342459     0.750000000
C271_C271_C2       C     0.101657541     0.131254593     0.250000000
C272_C272_C2       C     0.101657541     0.131254593     0.750000000
C273_C273_C2       C     0.107912134     0.107912134     0.250000000
C274_C274_C2       C     0.107912134     0.107912134     0.750000000
C275_C275_C2       C     0.131254593     0.101657541     0.250000000
C276_C276_C2       C     0.131254593     0.101657541     0.750000000
C277_C277_C2       C     0.131254593     0.398342459     0.250000000
C278_C278_C2       C     0.131254593     0.398342459     0.750000000
C279_C279_C2       C     0.107912134     0.392087866     0.250000000
C280_C280_C2       C     0.107912134     0.392087866     0.750000000
C281_C281_C2       C     0.101657541     0.368745407     0.250000000
C282_C282_C2       C     0.101657541     0.368745407     0.750000000
C283_C283_C2       C     0.118745407     0.351657541     0.250000000
C284_C284_C2       C     0.118745407     0.351657541     0.750000000
C285_C285_C2       C     0.142087866     0.357912134     0.250000000
C286_C286_C2       C     0.142087866     0.357912134     0.750000000
C287_C287_C2       C     0.148342459     0.381254593     0.250000000
C288_C288_C2       C     0.148342459     0.381254593     0.750000000
C289_C289_C2       C     0.020928276     0.762082946     0.250000000
C290_C290_C2       C     0.020928276     0.762082946     0.750000000
C291_C291_C2       C     1.000000000     0.774165891     0.250000000
C292_C292_C2       C     1.000000000     0.774165891     0.750000000
C293_C293_C2       C     0.979071724     0.762082946     0.250000000
C294_C294_C2       C     0.979071724     0.762082946     0.750000000
C295_C295_C2       C     0.979071724     0.737917054     0.250000000
C296_C296_C2       C     0.979071724     0.737917054     0.750000000
C297_C297_C2       C     1.000000000     0.725834109     0.250000000
C298_C298_C2       C     1.000000000     0.725834109     0.750000000
C299_C299_C2       C     0.020928276     0.737917054     0.250000000
C300_C300_C2       C     0.020928276     0.737917054     0.750000000
C301_C301_C2       C     0.512082946     0.229071724     0.250000000
C302_C302_C2       C     0.512082946     0.229071724     0.750000000
C303_C303_C2       C     0.524165891     0.250000000     0.250000000
C304_C304_C2       C     0.524165891     0.250000000     0.750000000
C305_C305_C2       C     0.512082946     0.270928276     0.250000000
C306_C306_C2       C     0.512082946     0.270928276     0.750000000
C307_C307_C2       C     0.487917054     0.270928276     0.250000000
C308_C308_C2       C     0.487917054     0.270928276     0.750000000
C309_C309_C2       C     0.475834109     0.250000000     0.250000000
C310_C310_C2       C     0.475834109     0.250000000     0.750000000
C311_C311_C2       C     0.487917054     0.229071724     0.250000000
C312_C312_C2       C     0.487917054     0.229071724     0.750000000
C313_C313_C2       C     0.881254593     0.148342459     0.250000000
C314_C314_C2       C     0.881254593     0.148342459     0.750000000
C315_C315_C2       C     0.857912134     0.142087866     0.250000000
C316_C316_C2       C     0.857912134     0.142087866     0.750000000
C317_C317_C2       C     0.851657541     0.118745407     0.250000000
C318_C318_C2       C     0.851657541     0.118745407     0.750000000
C319_C319_C2       C     0.868745407     0.101657541     0.250000000
C320_C320_C2       C     0.868745407     0.101657541     0.750000000
C321_C321_C2       C     0.892087866     0.107912134     0.250000000
C322_C322_C2       C     0.892087866     0.107912134     0.750000000
C323_C323_C2       C     0.898342459     0.131254593     0.250000000
C324_C324_C2       C     0.898342459     0.131254593     0.750000000
C325_C325_C2       C     0.898342459     0.368745407     0.250000000
C326_C326_C2       C     0.898342459     0.368745407     0.750000000
C327_C327_C2       C     0.892087866     0.392087866     0.250000000
C328_C328_C2       C     0.892087866     0.392087866     0.750000000
C329_C329_C2       C     0.868745407     0.398342459     0.250000000
C330_C330_C2       C     0.868745407     0.398342459     0.750000000
C331_C331_C2       C     0.851657541     0.381254593     0.250000000
C332_C332_C2       C     0.851657541     0.381254593     0.750000000
C333_C333_C2       C     0.857912134     0.357912134     0.250000000
C334_C334_C2       C     0.857912134     0.357912134     0.750000000
C335_C335_C2       C     0.881254593     0.351657541     0.250000000
C336_C336_C2       C     0.881254593     0.351657541     0.750000000
N337_N337_Q        N     0.157936872     0.157936872     0.250000000
N338_N338_Q        N     0.157936872     0.157936872     0.750000000
N339_N339_Q        N     0.092063128     0.092063128     0.250000000
N340_N340_Q        N     0.092063128     0.092063128     0.750000000
N341_N341_Q        N     0.092063128     0.407936872     0.250000000
N342_N342_Q        N     0.092063128     0.407936872     0.750000000
N343_N343_Q        N     0.157936872     0.342063128     0.250000000
N344_N344_Q        N     0.157936872     0.342063128     0.750000000
N345_N345_Q        N     1.000000000     0.796579772     0.250000000
N346_N346_Q        N     1.000000000     0.796579772     0.750000000
N347_N347_Q        N     1.000000000     0.703420228     0.250000000
N348_N348_Q        N     1.000000000     0.703420228     0.750000000
N349_N349_Q        N     0.546579772     0.250000000     0.250000000
N350_N350_Q        N     0.546579772     0.250000000     0.750000000
N351_N351_Q        N     0.453420228     0.250000000     0.250000000
N352_N352_Q        N     0.453420228     0.250000000     0.750000000
N353_N353_Q        N     0.842063128     0.157936872     0.250000000
N354_N354_Q        N     0.842063128     0.157936872     0.750000000
N355_N355_Q        N     0.907936872     0.092063128     0.250000000
N356_N356_Q        N     0.907936872     0.092063128     0.750000000
N357_N357_Q        N     0.907936872     0.407936872     0.250000000
N358_N358_Q        N     0.907936872     0.407936872     0.750000000
N359_N359_Q        N     0.842063128     0.342063128     0.250000000
N360_N360_Q        N     0.842063128     0.342063128     0.750000000
O361_O361_Q        O     0.997401040     0.060717885     0.250000000
O362_O362_Q        O     0.997401040     0.060717885     0.750000000
O363_O363_Q        O     0.948716249     0.967390292     0.250000000
O364_O364_Q        O     0.948716249     0.967390292     0.750000000
O365_O365_Q        O     0.053882711     0.971891822     0.250000000
O366_O366_Q        O     0.053882711     0.971891822     0.750000000
O367_O367_R        O     0.986436612     0.953100745     0.250000000
O368_O368_R        O     0.986436612     0.953100745     0.750000000
O369_O369_R        O     0.047397640     0.011703389     0.250000000
O370_O370_R        O     0.047397640     0.011703389     0.750000000
O371_O371_R        O     0.966165748     0.035195866     0.250000000
O372_O372_R        O     0.966165748     0.035195866     0.750000000
O373_O373_Q        O     0.002598960     0.439282115     0.250000000
O374_O374_Q        O     0.002598960     0.439282115     0.750000000
O375_O375_Q        O     0.051283751     0.532609708     0.250000000
O376_O376_Q        O     0.051283751     0.532609708     0.750000000
O377_O377_Q        O     0.946117289     0.528108178     0.250000000
O378_O378_Q        O     0.946117289     0.528108178     0.750000000
O379_O379_R        O     0.013563388     0.546899255     0.250000000
O380_O380_R        O     0.013563388     0.546899255     0.750000000
O381_O381_R        O     0.952602360     0.488296611     0.250000000
O382_O382_R        O     0.952602360     0.488296611     0.750000000
O383_O383_R        O     0.033834252     0.464804134     0.250000000
O384_O384_R        O     0.033834252     0.464804134     0.750000000
O385_O385_Q        O     0.189282115     0.247401040     0.250000000
O386_O386_Q        O     0.189282115     0.247401040     0.750000000
O387_O387_Q        O     0.282609708     0.198716249     0.250000000
O388_O388_Q        O     0.282609708     0.198716249     0.750000000
O389_O389_Q        O     0.278108178     0.303882711     0.250000000
O390_O390_Q        O     0.278108178     0.303882711     0.750000000
O391_O391_R        O     0.296899255     0.236436612     0.250000000
O392_O392_R        O     0.296899255     0.236436612     0.750000000
O393_O393_R        O     0.238296611     0.297397640     0.250000000
O394_O394_R        O     0.238296611     0.297397640     0.750000000
O395_O395_R        O     0.214804134     0.216165748     0.250000000
O396_O396_R        O     0.214804134     0.216165748     0.750000000
O397_O397_Q        O     0.810717885     0.252598960     0.250000000
O398_O398_Q        O     0.810717885     0.252598960     0.750000000
O399_O399_Q        O     0.717390292     0.301283751     0.250000000
O400_O400_Q        O     0.717390292     0.301283751     0.750000000
O401_O401_Q        O     0.721891822     0.196117289     0.250000000
O402_O402_Q        O     0.721891822     0.196117289     0.750000000
O403_O403_R        O     0.703100745     0.263563388     0.250000000
O404_O404_R        O     0.703100745     0.263563388     0.750000000
O405_O405_R        O     0.761703389     0.202602360     0.250000000
O406_O406_R        O     0.761703389     0.202602360     0.750000000
O407_O407_R        O     0.785195866     0.283834252     0.250000000
O408_O408_R        O     0.785195866     0.283834252     0.750000000

loop_
_geom_bond_atom_site_label_1
_geom_bond_atom_site_label_2
_geom_bond_distance
H1_Q       C159_Q     1.07000
H2_Q       C160_Q     1.07000
H3_Q       C161_Q     1.07000
H4_Q       C162_Q     1.07000
H7_Q       C165_Q     1.07000
H8_Q       C166_Q     1.07000
H9_Q       C167_Q     1.07000
H10_Q      C168_Q     1.07000
H13_Q      C171_Q     1.07000
H14_Q      C172_Q     1.07000
H15_Q      C173_Q     1.07000
H16_Q      C174_Q     1.07000
H19_R      O367_R     1.02108
H20_R      O368_R     1.02108
H21_R      O369_R     1.02108
H22_R      O370_R     1.02108
H23_R      O371_R     1.02108
H24_R      O372_R     1.02108
H25_Q      C189_Q     1.07000
H26_Q      C190_Q     1.07000
H27_Q      C191_Q     1.07000
H28_Q      C192_Q     1.07000
H31_Q      C195_Q     1.07000
H32_Q      C196_Q     1.07000
H33_Q      C197_Q     1.07000
H34_Q      C198_Q     1.07000
H37_Q      C201_Q     1.07000
H38_Q      C202_Q     1.07000
H39_Q      C203_Q     1.07000
H40_Q      C204_Q     1.07000
H43_R      O379_R     1.02108
H44_R      O380_R     1.02108
H45_R      O381_R     1.02108
H46_R      O382_R     1.02108
H47_R      O383_R     1.02108
H48_R      O384_R     1.02108
H49_Q      C219_Q     1.07000
H50_Q      C220_Q     1.07000
H51_Q      C221_Q     1.07000
H52_Q      C222_Q     1.07000
H55_Q      C225_Q     1.07000
H56_Q      C226_Q     1.07000
H57_Q      C227_Q     1.07000
H58_Q      C228_Q     1.07000
H61_Q      C231_Q     1.07000
H62_Q      C232_Q     1.07000
H63_Q      C233_Q     1.07000
H64_Q      C234_Q     1.07000
H67_R      O391_R     1.02108
H68_R      O392_R     1.02108
H69_R      O393_R     1.02108
H70_R      O394_R     1.02108
H71_R      O395_R     1.02108
H72_R      O396_R     1.02108
H73_Q      C249_Q     1.07000
H74_Q      C250_Q     1.07000
H75_Q      C251_Q     1.07000
H76_Q      C252_Q     1.07000
H79_Q      C255_Q     1.07000
H80_Q      C256_Q     1.07000
H81_Q      C257_Q     1.07000
H82_Q      C258_Q     1.07000
H85_Q      C261_Q     1.07000
H86_Q      C262_Q     1.07000
H87_Q      C263_Q     1.07000
H88_Q      C264_Q     1.07000
H91_R      O403_R     1.02108
H92_R      O404_R     1.02108
H93_R      O405_R     1.02108
H94_R      O406_R     1.02108
H95_R      O407_R     1.02108
H96_R      O408_R     1.02108
H97_R      C265_C2    1.09920
H98_R      C266_C2    1.09920
H99_R      C271_C2    1.09920
H100_R     C272_C2    1.09920
H101_R     C275_C2    1.09920
H102_R     C276_C2    1.09920
H103_R     C269_C2    1.09920
H104_R     C270_C2    1.09920
H105_R     C277_C2    1.09920
H106_R     C278_C2    1.09920
H107_R     C283_C2    1.09920
H108_R     C284_C2    1.09920
H109_R     C287_C2    1.09920
H110_R     C288_C2    1.09920
H111_R     C281_C2    1.09920
H112_R     C282_C2    1.09920
H113_R     C289_C2    1.09920
H114_R     C290_C2    1.09920
H115_R     C295_C2    1.09920
H116_R     C296_C2    1.09920
H117_R     C299_C2    1.09920
H118_R     C300_C2    1.09920
H119_R     C293_C2    1.09920
H120_R     C294_C2    1.09920
H121_R     C301_C2    1.09920
H122_R     C302_C2    1.09920
H123_R     C307_C2    1.09920
H124_R     C308_C2    1.09920
H125_R     C311_C2    1.09920
H126_R     C312_C2    1.09920
H127_R     C305_C2    1.09920
H128_R     C306_C2    1.09920
H129_R     C313_C2    1.09920
H130_R     C314_C2    1.09920
H131_R     C319_C2    1.09920
H132_R     C320_C2    1.09920
H133_R     C323_C2    1.09920
H134_R     C324_C2    1.09920
H135_R     C317_C2    1.09920
H136_R     C318_C2    1.09920
H137_R     C325_C2    1.09920
H138_R     C326_C2    1.09920
H139_R     C331_C2    1.09920
H140_R     C332_C2    1.09920
H141_R     C335_C2    1.09920
H142_R     C336_C2    1.09920
H143_R     C329_C2    1.09920
H144_R     C330_C2    1.09920
C145_C1    O367_R     1.43000
C145_C1    C147_C1    1.40162
C145_C1    C155_C1    1.40162
C146_C1    O368_R     1.43000
C146_C1    C148_C1    1.40162
C146_C1    C156_C1    1.40162
C147_C1    C145_C1    1.40162
C147_C1    C149_C1    1.40162
C147_C1    C169_Q     1.45000
C148_C1    C146_C1    1.40162
C148_C1    C150_C1    1.40162
C148_C1    C170_Q     1.45000
C149_C1    C147_C1    1.40162
C149_C1    O369_R     1.43000
C149_C1    C151_C1    1.40162
C150_C1    C148_C1    1.40162
C150_C1    O370_R     1.43000
C150_C1    C152_C1    1.40162
C151_C1    C153_C1    1.40162
C151_C1    C157_Q     1.45000
C151_C1    C149_C1    1.40162
C152_C1    C154_C1    1.40162
C152_C1    C158_Q     1.45000
C152_C1    C150_C1    1.40162
C153_C1    C155_C1    1.40162
C153_C1    C151_C1    1.40162
C153_C1    O371_R     1.43000
C154_C1    C156_C1    1.40162
C154_C1    C152_C1    1.40162
C154_C1    O372_R     1.43000
C155_C1    C153_C1    1.40162
C155_C1    C163_Q     1.45000
C155_C1    C145_C1    1.40162
C156_C1    C154_C1    1.40162
C156_C1    C164_Q     1.45000
C156_C1    C146_C1    1.40162
C157_Q     O361_Q     1.22521
C157_Q     C159_Q     1.54000
C157_Q     C151_C1    1.45000
C158_Q     O362_Q     1.22521
C158_Q     C160_Q     1.54000
C158_Q     C152_C1    1.45000
C159_Q     C161_Q     1.35520
C159_Q     C157_Q     1.54000
C159_Q     H1_Q       1.07000
C160_Q     C162_Q     1.35520
C160_Q     C158_Q     1.54000
C160_Q     H2_Q       1.07000
C161_Q     C159_Q     1.35520
C161_Q     H3_Q       1.07000
C162_Q     C160_Q     1.35520
C162_Q     H4_Q       1.07000
C163_Q     C165_Q     1.54000
C163_Q     O363_Q     1.22521
C163_Q     C155_C1    1.45000
C164_Q     C166_Q     1.54000
C164_Q     O364_Q     1.22521
C164_Q     C156_C1    1.45000
C165_Q     C167_Q     1.35520
C165_Q     H7_Q       1.07000
C165_Q     C163_Q     1.54000
C166_Q     C168_Q     1.35520
C166_Q     H8_Q       1.07000
C166_Q     C164_Q     1.54000
C167_Q     C165_Q     1.35520
C167_Q     H9_Q       1.07000
C168_Q     C166_Q     1.35520
C168_Q     H10_Q      1.07000
C169_Q     C171_Q     1.54000
C169_Q     O365_Q     1.22521
C169_Q     C147_C1    1.45000
C170_Q     C172_Q     1.54000
C170_Q     O366_Q     1.22521
C170_Q     C148_C1    1.45000
C171_Q     C173_Q     1.35520
C171_Q     H13_Q      1.07000
C171_Q     C169_Q     1.54000
C172_Q     C174_Q     1.35520
C172_Q     H14_Q      1.07000
C172_Q     C170_Q     1.54000
C173_Q     C171_Q     1.35520
C173_Q     H15_Q      1.07000
C174_Q     C172_Q     1.35520
C174_Q     H16_Q      1.07000
C175_C1    C177_C1    1.40162
C175_C1    C185_C1    1.40162
C175_C1    O379_R     1.43000
C176_C1    C178_C1    1.40162
C176_C1    C186_C1    1.40162
C176_C1    O380_R     1.43000
C177_C1    C179_C1    1.40162
C177_C1    C175_C1    1.40162
C177_C1    C199_Q     1.45000
C178_C1    C180_C1    1.40162
C178_C1    C176_C1    1.40162
C178_C1    C200_Q     1.45000
C179_C1    O381_R     1.43000
C179_C1    C181_C1    1.40162
C179_C1    C177_C1    1.40162
C180_C1    O382_R     1.43000
C180_C1    C182_C1    1.40162
C180_C1    C178_C1    1.40162
C181_C1    C183_C1    1.40162
C181_C1    C187_Q     1.45000
C181_C1    C179_C1    1.40162
C182_C1    C184_C1    1.40162
C182_C1    C188_Q     1.45000
C182_C1    C180_C1    1.40162
C183_C1    C181_C1    1.40162
C183_C1    O383_R     1.43000
C183_C1    C185_C1    1.40162
C184_C1    C182_C1    1.40162
C184_C1    O384_R     1.43000
C184_C1    C186_C1    1.40162
C185_C1    C193_Q     1.45000
C185_C1    C183_C1    1.40162
C185_C1    C175_C1    1.40162
C186_C1    C194_Q     1.45000
C186_C1    C184_C1    1.40162
C186_C1    C176_C1    1.40162
C187_Q     O373_Q     1.22521
C187_Q     C189_Q     1.54000
C187_Q     C181_C1    1.45000
C188_Q     O374_Q     1.22521
C188_Q     C190_Q     1.54000
C188_Q     C182_C1    1.45000
C189_Q     H25_Q      1.07000
C189_Q     C191_Q     1.35520
C189_Q     C187_Q     1.54000
C190_Q     H26_Q      1.07000
C190_Q     C192_Q     1.35520
C190_Q     C188_Q     1.54000
C191_Q     H27_Q      1.07000
C191_Q     C189_Q     1.35520
C192_Q     H28_Q      1.07000
C192_Q     C190_Q     1.35520
C193_Q     C195_Q     1.54000
C193_Q     C185_C1    1.45000
C193_Q     O375_Q     1.22521
C194_Q     C196_Q     1.54000
C194_Q     C186_C1    1.45000
C194_Q     O376_Q     1.22521
C195_Q     C193_Q     1.54000
C195_Q     H31_Q      1.07000
C195_Q     C197_Q     1.35520
C196_Q     C194_Q     1.54000
C196_Q     H32_Q      1.07000
C196_Q     C198_Q     1.35520
C197_Q     C195_Q     1.35520
C197_Q     H33_Q      1.07000
C198_Q     C196_Q     1.35520
C198_Q     H34_Q      1.07000
C199_Q     O377_Q     1.22521
C199_Q     C177_C1    1.45000
C199_Q     C201_Q     1.54000
C200_Q     O378_Q     1.22521
C200_Q     C178_C1    1.45000
C200_Q     C202_Q     1.54000
C201_Q     C203_Q     1.35520
C201_Q     C199_Q     1.54000
C201_Q     H37_Q      1.07000
C202_Q     C204_Q     1.35520
C202_Q     C200_Q     1.54000
C202_Q     H38_Q      1.07000
C203_Q     C201_Q     1.35520
C203_Q     H39_Q      1.07000
C204_Q     C202_Q     1.35520
C204_Q     H40_Q      1.07000
C205_C1    C215_C1    1.40162
C205_C1    O391_R     1.43000
C205_C1    C207_C1    1.40162
C206_C1    C216_C1    1.40162
C206_C1    O392_R     1.43000
C206_C1    C208_C1    1.40162
C207_C1    C209_C1    1.40162
C207_C1    C205_C1    1.40162
C207_C1    C229_Q     1.45000
C208_C1    C210_C1    1.40162
C208_C1    C206_C1    1.40162
C208_C1    C230_Q     1.45000
C209_C1    C211_C1    1.40162
C209_C1    O393_R     1.43000
C209_C1    C207_C1    1.40162
C210_C1    C212_C1    1.40162
C210_C1    O394_R     1.43000
C210_C1    C208_C1    1.40162
C211_C1    C217_Q     1.45000
C211_C1    C213_C1    1.40162
C211_C1    C209_C1    1.40162
C212_C1    C218_Q     1.45000
C212_C1    C214_C1    1.40162
C212_C1    C210_C1    1.40162
C213_C1    O395_R     1.43000
C213_C1    C215_C1    1.40162
C213_C1    C211_C1    1.40162
C214_C1    O396_R     1.43000
C214_C1    C216_C1    1.40162
C214_C1    C212_C1    1.40162
C215_C1    C213_C1    1.40162
C215_C1    C223_Q     1.45000
C215_C1    C205_C1    1.40162
C216_C1    C214_C1    1.40162
C216_C1    C224_Q     1.45000
C216_C1    C206_C1    1.40162
C217_Q     O385_Q     1.22521
C217_Q     C211_C1    1.45000
C217_Q     C219_Q     1.54000
C218_Q     O386_Q     1.22521
C218_Q     C212_C1    1.45000
C218_Q     C220_Q     1.54000
C219_Q     C221_Q     1.35520
C219_Q     C217_Q     1.54000
C219_Q     H49_Q      1.07000
C220_Q     C222_Q     1.35520
C220_Q     C218_Q     1.54000
C220_Q     H50_Q      1.07000
C221_Q     H51_Q      1.07000
C221_Q     C219_Q     1.35520
C222_Q     H52_Q      1.07000
C222_Q     C220_Q     1.35520
C223_Q     C225_Q     1.54000
C223_Q     C215_C1    1.45000
C223_Q     O387_Q     1.22521
C224_Q     C226_Q     1.54000
C224_Q     C216_C1    1.45000
C224_Q     O388_Q     1.22521
C225_Q     C227_Q     1.35520
C225_Q     H55_Q      1.07000
C225_Q     C223_Q     1.54000
C226_Q     C228_Q     1.35520
C226_Q     H56_Q      1.07000
C226_Q     C224_Q     1.54000
C227_Q     H57_Q      1.07000
C227_Q     C225_Q     1.35520
C228_Q     H58_Q      1.07000
C228_Q     C226_Q     1.35520
C229_Q     O389_Q     1.22521
C229_Q     C231_Q     1.54000
C229_Q     C207_C1    1.45000
C230_Q     O390_Q     1.22521
C230_Q     C232_Q     1.54000
C230_Q     C208_C1    1.45000
C231_Q     H61_Q      1.07000
C231_Q     C233_Q     1.35520
C231_Q     C229_Q     1.54000
C232_Q     H62_Q      1.07000
C232_Q     C234_Q     1.35520
C232_Q     C230_Q     1.54000
C233_Q     C231_Q     1.35520
C233_Q     H63_Q      1.07000
C234_Q     C232_Q     1.35520
C234_Q     H64_Q      1.07000
C235_C1    O403_R     1.43000
C235_C1    C237_C1    1.40162
C235_C1    C245_C1    1.40162
C236_C1    O404_R     1.43000
C236_C1    C238_C1    1.40162
C236_C1    C246_C1    1.40162
C237_C1    C259_Q     1.45000
C237_C1    C239_C1    1.40162
C237_C1    C235_C1    1.40162
C238_C1    C260_Q     1.45000
C238_C1    C240_C1    1.40162
C238_C1    C236_C1    1.40162
C239_C1    O405_R     1.43000
C239_C1    C241_C1    1.40162
C239_C1    C237_C1    1.40162
C240_C1    O406_R     1.43000
C240_C1    C242_C1    1.40162
C240_C1    C238_C1    1.40162
C241_C1    C239_C1    1.40162
C241_C1    C243_C1    1.40162
C241_C1    C247_Q     1.45000
C242_C1    C240_C1    1.40162
C242_C1    C244_C1    1.40162
C242_C1    C248_Q     1.45000
C243_C1    C241_C1    1.40162
C243_C1    C245_C1    1.40162
C243_C1    O407_R     1.43000
C244_C1    C242_C1    1.40162
C244_C1    C246_C1    1.40162
C244_C1    O408_R     1.43000
C245_C1    C235_C1    1.40162
C245_C1    C253_Q     1.45000
C245_C1    C243_C1    1.40162
C246_C1    C236_C1    1.40162
C246_C1    C254_Q     1.45000
C246_C1    C244_C1    1.40162
C247_Q     C241_C1    1.45000
C247_Q     O397_Q     1.22521
C247_Q     C249_Q     1.54000
C248_Q     C242_C1    1.45000
C248_Q     O398_Q     1.22521
C248_Q     C250_Q     1.54000
C249_Q     C251_Q     1.35520
C249_Q     C247_Q     1.54000
C249_Q     H73_Q      1.07000
C250_Q     C252_Q     1.35520
C250_Q     C248_Q     1.54000
C250_Q     H74_Q      1.07000
C251_Q     C249_Q     1.35520
C251_Q     H75_Q      1.07000
C252_Q     C250_Q     1.35520
C252_Q     H76_Q      1.07000
C253_Q     O399_Q     1.22521
C253_Q     C255_Q     1.54000
C253_Q     C245_C1    1.45000
C254_Q     O400_Q     1.22521
C254_Q     C256_Q     1.54000
C254_Q     C246_C1    1.45000
C255_Q     C257_Q     1.35520
C255_Q     C253_Q     1.54000
C255_Q     H79_Q      1.07000
C256_Q     C258_Q     1.35520
C256_Q     C254_Q     1.54000
C256_Q     H80_Q      1.07000
C257_Q     C255_Q     1.35520
C257_Q     H81_Q      1.07000
C258_Q     C256_Q     1.35520
C258_Q     H82_Q      1.07000
C259_Q     C261_Q     1.54000
C259_Q     O401_Q     1.22521
C259_Q     C237_C1    1.45000
C260_Q     C262_Q     1.54000
C260_Q     O402_Q     1.22521
C260_Q     C238_C1    1.45000
C261_Q     C263_Q     1.35520
C261_Q     H85_Q      1.07000
C261_Q     C259_Q     1.54000
C262_Q     C264_Q     1.35520
C262_Q     H86_Q      1.07000
C262_Q     C260_Q     1.54000
C263_Q     C261_Q     1.35520
C263_Q     H87_Q      1.07000
C264_Q     C262_Q     1.35520
C264_Q     H88_Q      1.07000
C265_C2    C275_C2    1.40162
C265_C2    C267_C2    1.40162
C265_C2    H97_R      1.09920
C266_C2    C276_C2    1.40162
C266_C2    C268_C2    1.40162
C266_C2    H98_R      1.09920
C267_C2    N337_Q     1.30000
C267_C2    C269_C2    1.40162
C267_C2    C265_C2    1.40162
C268_C2    N338_Q     1.30000
C268_C2    C270_C2    1.40162
C268_C2    C266_C2    1.40162
C269_C2    C271_C2    1.40162
C269_C2    C267_C2    1.40162
C269_C2    H103_R     1.09920
C270_C2    C272_C2    1.40162
C270_C2    C268_C2    1.40162
C270_C2    H104_R     1.09920
C271_C2    H99_R      1.09920
C271_C2    C273_C2    1.40162
C271_C2    C269_C2    1.40162
C272_C2    H100_R     1.09920
C272_C2    C274_C2    1.40162
C272_C2    C270_C2    1.40162
C273_C2    N339_Q     1.30000
C273_C2    C275_C2    1.40162
C273_C2    C271_C2    1.40162
C274_C2    N340_Q     1.30000
C274_C2    C276_C2    1.40162
C274_C2    C272_C2    1.40162
C275_C2    H101_R     1.09920
C275_C2    C273_C2    1.40162
C275_C2    C265_C2    1.40162
C276_C2    H102_R     1.09920
C276_C2    C274_C2    1.40162
C276_C2    C266_C2    1.40162
C277_C2    C287_C2    1.40162
C277_C2    C279_C2    1.40162
C277_C2    H105_R     1.09920
C278_C2    C288_C2    1.40162
C278_C2    C280_C2    1.40162
C278_C2    H106_R     1.09920
C279_C2    N341_Q     1.30000
C279_C2    C281_C2    1.40162
C279_C2    C277_C2    1.40162
C280_C2    N342_Q     1.30000
C280_C2    C282_C2    1.40162
C280_C2    C278_C2    1.40162
C281_C2    H111_R     1.09920
C281_C2    C283_C2    1.40162
C281_C2    C279_C2    1.40162
C282_C2    H112_R     1.09920
C282_C2    C284_C2    1.40162
C282_C2    C280_C2    1.40162
C283_C2    H107_R     1.09920
C283_C2    C285_C2    1.40162
C283_C2    C281_C2    1.40162
C284_C2    H108_R     1.09920
C284_C2    C286_C2    1.40162
C284_C2    C282_C2    1.40162
C285_C2    N343_Q     1.30000
C285_C2    C287_C2    1.40162
C285_C2    C283_C2    1.40162
C286_C2    N344_Q     1.30000
C286_C2    C288_C2    1.40162
C286_C2    C284_C2    1.40162
C287_C2    C285_C2    1.40162
C287_C2    C277_C2    1.40162
C287_C2    H109_R     1.09920
C288_C2    C286_C2    1.40162
C288_C2    C278_C2    1.40162
C288_C2    H110_R     1.09920
C289_C2    C291_C2    1.40162
C289_C2    C299_C2    1.40162
C289_C2    H113_R     1.09920
C290_C2    C292_C2    1.40162
C290_C2    C300_C2    1.40162
C290_C2    H114_R     1.09920
C291_C2    C289_C2    1.40162
C291_C2    C293_C2    1.40162
C291_C2    N345_Q     1.30000
C292_C2    C290_C2    1.40162
C292_C2    C294_C2    1.40162
C292_C2    N346_Q     1.30000
C293_C2    C295_C2    1.40162
C293_C2    C291_C2    1.40162
C293_C2    H119_R     1.09920
C294_C2    C296_C2    1.40162
C294_C2    C292_C2    1.40162
C294_C2    H120_R     1.09920
C295_C2    C297_C2    1.40162
C295_C2    C293_C2    1.40162
C295_C2    H115_R     1.09920
C296_C2    C298_C2    1.40162
C296_C2    C294_C2    1.40162
C296_C2    H116_R     1.09920
C297_C2    C299_C2    1.40162
C297_C2    N347_Q     1.30000
C297_C2    C295_C2    1.40162
C298_C2    C300_C2    1.40162
C298_C2    N348_Q     1.30000
C298_C2    C296_C2    1.40162
C299_C2    C297_C2    1.40162
C299_C2    C289_C2    1.40162
C299_C2    H117_R     1.09920
C300_C2    C298_C2    1.40162
C300_C2    C290_C2    1.40162
C300_C2    H118_R     1.09920
C301_C2    C311_C2    1.40162
C301_C2    C303_C2    1.40162
C301_C2    H121_R     1.09920
C302_C2    C312_C2    1.40162
C302_C2    C304_C2    1.40162
C302_C2    H122_R     1.09920
C303_C2    C301_C2    1.40162
C303_C2    C305_C2    1.40162
C303_C2    N349_Q     1.30000
C304_C2    C302_C2    1.40162
C304_C2    C306_C2    1.40162
C304_C2    N350_Q     1.30000
C305_C2    C307_C2    1.40162
C305_C2    C303_C2    1.40162
C305_C2    H127_R     1.09920
C306_C2    C308_C2    1.40162
C306_C2    C304_C2    1.40162
C306_C2    H128_R     1.09920
C307_C2    C309_C2    1.40162
C307_C2    C305_C2    1.40162
C307_C2    H123_R     1.09920
C308_C2    C310_C2    1.40162
C308_C2    C306_C2    1.40162
C308_C2    H124_R     1.09920
C309_C2    N351_Q     1.30000
C309_C2    C311_C2    1.40162
C309_C2    C307_C2    1.40162
C310_C2    N352_Q     1.30000
C310_C2    C312_C2    1.40162
C310_C2    C308_C2    1.40162
C311_C2    C309_C2    1.40162
C311_C2    C301_C2    1.40162
C311_C2    H125_R     1.09920
C312_C2    C310_C2    1.40162
C312_C2    C302_C2    1.40162
C312_C2    H126_R     1.09920
C313_C2    C315_C2    1.40162
C313_C2    C323_C2    1.40162
C313_C2    H129_R     1.09920
C314_C2    C316_C2    1.40162
C314_C2    C324_C2    1.40162
C314_C2    H130_R     1.09920
C315_C2    N353_Q     1.30000
C315_C2    C317_C2    1.40162
C315_C2    C313_C2    1.40162
C316_C2    N354_Q     1.30000
C316_C2    C318_C2    1.40162
C316_C2    C314_C2    1.40162
C317_C2    C315_C2    1.40162
C317_C2    H135_R     1.09920
C317_C2    C319_C2    1.40162
C318_C2    C316_C2    1.40162
C318_C2    H136_R     1.09920
C318_C2    C320_C2    1.40162
C319_C2    C317_C2    1.40162
C319_C2    H131_R     1.09920
C319_C2    C321_C2    1.40162
C320_C2    C318_C2    1.40162
C320_C2    H132_R     1.09920
C320_C2    C322_C2    1.40162
C321_C2    N355_Q     1.30000
C321_C2    C323_C2    1.40162
C321_C2    C319_C2    1.40162
C322_C2    N356_Q     1.30000
C322_C2    C324_C2    1.40162
C322_C2    C320_C2    1.40162
C323_C2    C321_C2    1.40162
C323_C2    C313_C2    1.40162
C323_C2    H133_R     1.09920
C324_C2    C322_C2    1.40162
C324_C2    C314_C2    1.40162
C324_C2    H134_R     1.09920
C325_C2    C335_C2    1.40162
C325_C2    C327_C2    1.40162
C325_C2    H137_R     1.09920
C326_C2    C336_C2    1.40162
C326_C2    C328_C2    1.40162
C326_C2    H138_R     1.09920
C327_C2    N357_Q     1.30000
C327_C2    C329_C2    1.40162
C327_C2    C325_C2    1.40162
C328_C2    N358_Q     1.30000
C328_C2    C330_C2    1.40162
C328_C2    C326_C2    1.40162
C329_C2    C331_C2    1.40162
C329_C2    C327_C2    1.40162
C329_C2    H143_R     1.09920
C330_C2    C332_C2    1.40162
C330_C2    C328_C2    1.40162
C330_C2    H144_R     1.09920
C331_C2    C333_C2    1.40162
C331_C2    H139_R     1.09920
C331_C2    C329_C2    1.40162
C332_C2    C334_C2    1.40162
C332_C2    H140_R     1.09920
C332_C2    C330_C2    1.40162
C333_C2    N359_Q     1.30000
C333_C2    C331_C2    1.40162
C333_C2    C335_C2    1.40162
C334_C2    N360_Q     1.30000
C334_C2    C332_C2    1.40162
C334_C2    C336_C2    1.40162
C335_C2    C333_C2    1.40162
C335_C2    H141_R     1.09920
C335_C2    C325_C2    1.40162
C336_C2    C334_C2    1.40162
C336_C2    H142_R     1.09920
C336_C2    C326_C2    1.40162
N337_Q     C267_C2    1.30000
N338_Q     C268_C2    1.30000
N339_Q     C273_C2    1.30000
N340_Q     C274_C2    1.30000
N341_Q     C279_C2    1.30000
N342_Q     C280_C2    1.30000
N343_Q     C285_C2    1.30000
N344_Q     C286_C2    1.30000
N345_Q     C291_C2    1.30000
N346_Q     C292_C2    1.30000
N347_Q     C297_C2    1.30000
N348_Q     C298_C2    1.30000
N349_Q     C303_C2    1.30000
N350_Q     C304_C2    1.30000
N351_Q     C309_C2    1.30000
N352_Q     C310_C2    1.30000
N353_Q     C315_C2    1.30000
N354_Q     C316_C2    1.30000
N355_Q     C321_C2    1.30000
N356_Q     C322_C2    1.30000
N357_Q     C327_C2    1.30000
N358_Q     C328_C2    1.30000
N359_Q     C333_C2    1.30000
N360_Q     C334_C2    1.30000
O361_Q     C157_Q     1.22521
O362_Q     C158_Q     1.22521
O363_Q     C163_Q     1.22521
O364_Q     C164_Q     1.22521
O365_Q     C169_Q     1.22521
O366_Q     C170_Q     1.22521
O367_R     H19_R      1.02108
O367_R     C145_C1    1.43000
O368_R     H20_R      1.02108
O368_R     C146_C1    1.43000
O369_R     C149_C1    1.43000
O369_R     H21_R      1.02108
O370_R     C150_C1    1.43000
O370_R     H22_R      1.02108
O371_R     H23_R      1.02108
O371_R     C153_C1    1.43000
O372_R     H24_R      1.02108
O372_R     C154_C1    1.43000
O373_Q     C187_Q     1.22521
O374_Q     C188_Q     1.22521
O375_Q     C193_Q     1.22521
O376_Q     C194_Q     1.22521
O377_Q     C199_Q     1.22521
O378_Q     C200_Q     1.22521
O379_R     C175_C1    1.43000
O379_R     H43_R      1.02108
O380_R     C176_C1    1.43000
O380_R     H44_R      1.02108
O381_R     H45_R      1.02108
O381_R     C179_C1    1.43000
O382_R     H46_R      1.02108
O382_R     C180_C1    1.43000
O383_R     C183_C1    1.43000
O383_R     H47_R      1.02108
O384_R     C184_C1    1.43000
O384_R     H48_R      1.02108
O385_Q     C217_Q     1.22521
O386_Q     C218_Q     1.22521
O387_Q     C223_Q     1.22521
O388_Q     C224_Q     1.22521
O389_Q     C229_Q     1.22521
O390_Q     C230_Q     1.22521
O391_R     C205_C1    1.43000
O391_R     H67_R      1.02108
O392_R     C206_C1    1.43000
O392_R     H68_R      1.02108
O393_R     C209_C1    1.43000
O393_R     H69_R      1.02108
O394_R     C210_C1    1.43000
O394_R     H70_R      1.02108
O395_R     C213_C1    1.43000
O395_R     H71_R      1.02108
O396_R     C214_C1    1.43000
O396_R     H72_R      1.02108
O397_Q     C247_Q     1.22521
O398_Q     C248_Q     1.22521
O399_Q     C253_Q     1.22521
O400_Q     C254_Q     1.22521
O401_Q     C259_Q     1.22521
O402_Q     C260_Q     1.22521
O403_R     H91_R      1.02108
O403_R     C235_C1    1.43000
O404_R     H92_R      1.02108
O404_R     C236_C1    1.43000
O405_R     C239_C1    1.43000
O405_R     H93_R      1.02108
O406_R     C240_C1    1.43000
O406_R     H94_R      1.02108
O407_R     C243_C1    1.43000
O407_R     H95_R      1.02108
O408_R     C244_C1    1.43000
O408_R     H96_R      1.02108
