data_T3_BENZ_CHO_OH-L2_BPNY_NH2_H_H_H_H-FESa-AA

_audit_creation_date     2025-25-02
_audit_creation_method   pyCOFBuilder
_audit_author_name       'root'

_chemical_name_common                  'T3_BENZ_CHO_OH-L2_BPNY_NH2_H_H_H_H-FESa-AA'
_cell_length_a                           59.560447
_cell_length_b                           59.560447
_cell_length_c                            7.200000
_cell_angle_alpha                        90.00
_cell_angle_beta                         90.00
_cell_angle_gamma                        90.00
_space_group_name_H-M_alt               'P 1'
_space_group_IT_number                  1

loop_
_symmetry_equiv_pos_as_xyz
   'x, y, z'

loop_
   _atom_site_label
   _atom_site_type_symbol
   _atom_site_fract_x
   _atom_site_fract_y
   _atom_site_fract_z
H1_H1_Q            H     0.981972016     0.058330133     0.250000000
H2_H2_Q            H     0.981972016     0.058330133     0.750000000
H3_H3_Q            H     0.958498615     0.955222242     0.250000000
H4_H4_Q            H     0.958498615     0.955222242     0.750000000
H5_H5_Q            H     0.059529369     0.986447625     0.250000000
H6_H6_Q            H     0.059529369     0.986447625     0.750000000
H7_H7_R            H     0.016684788     0.944475531     0.250000000
H8_H8_R            H     0.016684788     0.944475531     0.750000000
H9_H9_R            H     0.039743207     0.042211685     0.250000000
H10_H10_R          H     0.039743207     0.042211685     0.750000000
H11_H11_R          H     0.943572005     0.013312784     0.250000000
H12_H12_R          H     0.943572005     0.013312784     0.750000000
H13_H13_Q          H     0.018027984     0.441669867     0.250000000
H14_H14_Q          H     0.018027984     0.441669867     0.750000000
H15_H15_Q          H     0.041501385     0.544777758     0.250000000
H16_H16_Q          H     0.041501385     0.544777758     0.750000000
H17_H17_Q          H     0.940470631     0.513552375     0.250000000
H18_H18_Q          H     0.940470631     0.513552375     0.750000000
H19_H19_R          H     0.983315212     0.555524469     0.250000000
H20_H20_R          H     0.983315212     0.555524469     0.750000000
H21_H21_R          H     0.960256793     0.457788315     0.250000000
H22_H22_R          H     0.960256793     0.457788315     0.750000000
H23_H23_R          H     0.056427995     0.486687216     0.250000000
H24_H24_R          H     0.056427995     0.486687216     0.750000000
H25_H25_Q          H     0.191669867     0.231972016     0.250000000
H26_H26_Q          H     0.191669867     0.231972016     0.750000000
H27_H27_Q          H     0.294777758     0.208498615     0.250000000
H28_H28_Q          H     0.294777758     0.208498615     0.750000000
H29_H29_Q          H     0.263552375     0.309529369     0.250000000
H30_H30_Q          H     0.263552375     0.309529369     0.750000000
H31_H31_R          H     0.305524469     0.266684788     0.250000000
H32_H32_R          H     0.305524469     0.266684788     0.750000000
H33_H33_R          H     0.207788315     0.289743207     0.250000000
H34_H34_R          H     0.207788315     0.289743207     0.750000000
H35_H35_R          H     0.236687216     0.193572005     0.250000000
H36_H36_R          H     0.236687216     0.193572005     0.750000000
H37_H37_Q          H     0.808330133     0.268027984     0.250000000
H38_H38_Q          H     0.808330133     0.268027984     0.750000000
H39_H39_Q          H     0.705222242     0.291501385     0.250000000
H40_H40_Q          H     0.705222242     0.291501385     0.750000000
H41_H41_Q          H     0.736447625     0.190470631     0.250000000
H42_H42_Q          H     0.736447625     0.190470631     0.750000000
H43_H43_R          H     0.694475531     0.233315212     0.250000000
H44_H44_R          H     0.694475531     0.233315212     0.750000000
H45_H45_R          H     0.792211685     0.210256793     0.250000000
H46_H46_R          H     0.792211685     0.210256793     0.750000000
H47_H47_R          H     0.763312784     0.306427995     0.250000000
H48_H48_R          H     0.763312784     0.306427995     0.750000000
H49_H49_R          H     0.110134892     0.058850716     0.250000000
H50_H50_R          H     0.110134892     0.058850716     0.750000000
H51_H51_R          H     0.139865108     0.191149284     0.250000000
H52_H52_R          H     0.139865108     0.191149284     0.750000000
H53_H53_R          H     0.191144709     0.139870171     0.250000000
H54_H54_R          H     0.191144709     0.139870171     0.750000000
H55_H55_R          H     0.058855291     0.110129829     0.250000000
H56_H56_R          H     0.058855291     0.110129829     0.750000000
H57_H57_R          H     0.110266059     0.161544699     0.250000000
H58_H58_R          H     0.110266059     0.161544699     0.750000000
H59_H59_R          H     0.139733941     0.088455301     0.250000000
H60_H60_R          H     0.139733941     0.088455301     0.750000000
H61_H61_R          H     0.161554289     0.110263514     0.250000000
H62_H62_R          H     0.161554289     0.110263514     0.750000000
H63_H63_R          H     0.088445711     0.139736486     0.250000000
H64_H64_R          H     0.088445711     0.139736486     0.750000000
H65_H65_R          H     0.191149284     0.360134892     0.250000000
H66_H66_R          H     0.191149284     0.360134892     0.750000000
H67_H67_R          H     0.058850716     0.389865108     0.250000000
H68_H68_R          H     0.058850716     0.389865108     0.750000000
H69_H69_R          H     0.110129829     0.441144709     0.250000000
H70_H70_R          H     0.110129829     0.441144709     0.750000000
H71_H71_R          H     0.139870171     0.308855291     0.250000000
H72_H72_R          H     0.139870171     0.308855291     0.750000000
H73_H73_R          H     0.088455301     0.360266059     0.250000000
H74_H74_R          H     0.088455301     0.360266059     0.750000000
H75_H75_R          H     0.161544699     0.389733941     0.250000000
H76_H76_R          H     0.161544699     0.389733941     0.750000000
H77_H77_R          H     0.139736486     0.411554289     0.250000000
H78_H78_R          H     0.139736486     0.411554289     0.750000000
H79_H79_R          H     0.110263514     0.338445711     0.250000000
H80_H80_R          H     0.110263514     0.338445711     0.750000000
H81_H81_R          H     0.036263388     0.692714174     0.250000000
H82_H82_R          H     0.036263388     0.692714174     0.750000000
H83_H83_R          H     0.963736612     0.807285826     0.250000000
H84_H84_R          H     0.963736612     0.807285826     0.750000000
H85_H85_R          H     0.036256573     0.807286171     0.250000000
H86_H86_R          H     0.036256573     0.807286171     0.750000000
H87_H87_R          H     0.963743427     0.692713829     0.250000000
H88_H88_R          H     0.963743427     0.692713829     0.750000000
H89_H89_R          H     0.963740525     0.765422535     0.250000000
H90_H90_R          H     0.963740525     0.765422535     0.750000000
H91_H91_R          H     0.036259475     0.734577465     0.250000000
H92_H92_R          H     0.036259475     0.734577465     0.750000000
H93_H93_R          H     0.036268055     0.765427516     0.250000000
H94_H94_R          H     0.036268055     0.765427516     0.750000000
H95_H95_R          H     0.963731945     0.734572484     0.250000000
H96_H96_R          H     0.963731945     0.734572484     0.750000000
H97_H97_R          H     0.442714174     0.213736612     0.250000000
H98_H98_R          H     0.442714174     0.213736612     0.750000000
H99_H99_R          H     0.557285826     0.286263388     0.250000000
H100_H100_R        H     0.557285826     0.286263388     0.750000000
H101_H101_R        H     0.557286171     0.213743427     0.250000000
H102_H102_R        H     0.557286171     0.213743427     0.750000000
H103_H103_R        H     0.442713829     0.286256573     0.250000000
H104_H104_R        H     0.442713829     0.286256573     0.750000000
H105_H105_R        H     0.515422535     0.286259475     0.250000000
H106_H106_R        H     0.515422535     0.286259475     0.750000000
H107_H107_R        H     0.484577465     0.213740525     0.250000000
H108_H108_R        H     0.484577465     0.213740525     0.750000000
H109_H109_R        H     0.515427516     0.213731945     0.250000000
H110_H110_R        H     0.515427516     0.213731945     0.750000000
H111_H111_R        H     0.484572484     0.286268055     0.250000000
H112_H112_R        H     0.484572484     0.286268055     0.750000000
H113_H113_R        H     0.941149284     0.110134892     0.250000000
H114_H114_R        H     0.941149284     0.110134892     0.750000000
H115_H115_R        H     0.808850716     0.139865108     0.250000000
H116_H116_R        H     0.808850716     0.139865108     0.750000000
H117_H117_R        H     0.860129829     0.191144709     0.250000000
H118_H118_R        H     0.860129829     0.191144709     0.750000000
H119_H119_R        H     0.889870171     0.058855291     0.250000000
H120_H120_R        H     0.889870171     0.058855291     0.750000000
H121_H121_R        H     0.838455301     0.110266059     0.250000000
H122_H122_R        H     0.838455301     0.110266059     0.750000000
H123_H123_R        H     0.911544699     0.139733941     0.250000000
H124_H124_R        H     0.911544699     0.139733941     0.750000000
H125_H125_R        H     0.889736486     0.161554289     0.250000000
H126_H126_R        H     0.889736486     0.161554289     0.750000000
H127_H127_R        H     0.860263514     0.088445711     0.250000000
H128_H128_R        H     0.860263514     0.088445711     0.750000000
H129_H129_R        H     0.860134892     0.308850716     0.250000000
H130_H130_R        H     0.860134892     0.308850716     0.750000000
H131_H131_R        H     0.889865108     0.441149284     0.250000000
H132_H132_R        H     0.889865108     0.441149284     0.750000000
H133_H133_R        H     0.941144709     0.389870171     0.250000000
H134_H134_R        H     0.941144709     0.389870171     0.750000000
H135_H135_R        H     0.808855291     0.360129829     0.250000000
H136_H136_R        H     0.808855291     0.360129829     0.750000000
H137_H137_R        H     0.860266059     0.411544699     0.250000000
H138_H138_R        H     0.860266059     0.411544699     0.750000000
H139_H139_R        H     0.889733941     0.338455301     0.250000000
H140_H140_R        H     0.889733941     0.338455301     0.750000000
H141_H141_R        H     0.911554289     0.360263514     0.250000000
H142_H142_R        H     0.911554289     0.360263514     0.750000000
H143_H143_R        H     0.838445711     0.389736486     0.250000000
H144_H144_R        H     0.838445711     0.389736486     0.750000000
C145_C145_C1       C     0.000755374     0.976479458     0.250000000
C146_C146_C1       C     0.000755374     0.976479458     0.750000000
C147_C147_C1       C     0.020747074     0.988893902     0.250000000
C148_C148_C1       C     0.020747074     0.988893902     0.750000000
C149_C149_C1       C     0.019991700     0.012414444     0.250000000
C150_C150_C1       C     0.019991700     0.012414444     0.750000000
C151_C151_C1       C     0.999244626     0.023520542     0.250000000
C152_C152_C1       C     0.999244626     0.023520542     0.750000000
C153_C153_C1       C     0.979252926     0.011106098     0.250000000
C154_C154_C1       C     0.979252926     0.011106098     0.750000000
C155_C155_C1       C     0.980008300     0.987585556     0.250000000
C156_C156_C1       C     0.980008300     0.987585556     0.750000000
C157_C157_Q        C     0.998409284     0.049531113     0.250000000
C158_C158_Q        C     0.998409284     0.049531113     0.750000000
C159_C159_Q        C     0.957900156     0.973856843     0.250000000
C160_C160_Q        C     0.957900156     0.973856843     0.750000000
C161_C161_Q        C     0.043690561     0.976612044     0.250000000
C162_C162_Q        C     0.043690561     0.976612044     0.750000000
C163_C163_C1       C     0.999244626     0.523520542     0.250000000
C164_C164_C1       C     0.999244626     0.523520542     0.750000000
C165_C165_C1       C     0.979252926     0.511106098     0.250000000
C166_C166_C1       C     0.979252926     0.511106098     0.750000000
C167_C167_C1       C     0.980008300     0.487585556     0.250000000
C168_C168_C1       C     0.980008300     0.487585556     0.750000000
C169_C169_C1       C     0.000755374     0.476479458     0.250000000
C170_C170_C1       C     0.000755374     0.476479458     0.750000000
C171_C171_C1       C     0.020747074     0.488893902     0.250000000
C172_C172_C1       C     0.020747074     0.488893902     0.750000000
C173_C173_C1       C     0.019991700     0.512414444     0.250000000
C174_C174_C1       C     0.019991700     0.512414444     0.750000000
C175_C175_Q        C     0.001590716     0.450468887     0.250000000
C176_C176_Q        C     0.001590716     0.450468887     0.750000000
C177_C177_Q        C     0.042099844     0.526143157     0.250000000
C178_C178_Q        C     0.042099844     0.526143157     0.750000000
C179_C179_Q        C     0.956309439     0.523387956     0.250000000
C180_C180_Q        C     0.956309439     0.523387956     0.750000000
C181_C181_C1       C     0.273520542     0.250755374     0.250000000
C182_C182_C1       C     0.273520542     0.250755374     0.750000000
C183_C183_C1       C     0.261106098     0.270747074     0.250000000
C184_C184_C1       C     0.261106098     0.270747074     0.750000000
C185_C185_C1       C     0.237585556     0.269991700     0.250000000
C186_C186_C1       C     0.237585556     0.269991700     0.750000000
C187_C187_C1       C     0.226479458     0.249244626     0.250000000
C188_C188_C1       C     0.226479458     0.249244626     0.750000000
C189_C189_C1       C     0.238893902     0.229252926     0.250000000
C190_C190_C1       C     0.238893902     0.229252926     0.750000000
C191_C191_C1       C     0.262414444     0.230008300     0.250000000
C192_C192_C1       C     0.262414444     0.230008300     0.750000000
C193_C193_Q        C     0.200468887     0.248409284     0.250000000
C194_C194_Q        C     0.200468887     0.248409284     0.750000000
C195_C195_Q        C     0.276143157     0.207900156     0.250000000
C196_C196_Q        C     0.276143157     0.207900156     0.750000000
C197_C197_Q        C     0.273387956     0.293690561     0.250000000
C198_C198_Q        C     0.273387956     0.293690561     0.750000000
C199_C199_C1       C     0.726479458     0.249244626     0.250000000
C200_C200_C1       C     0.726479458     0.249244626     0.750000000
C201_C201_C1       C     0.738893902     0.229252926     0.250000000
C202_C202_C1       C     0.738893902     0.229252926     0.750000000
C203_C203_C1       C     0.762414444     0.230008300     0.250000000
C204_C204_C1       C     0.762414444     0.230008300     0.750000000
C205_C205_C1       C     0.773520542     0.250755374     0.250000000
C206_C206_C1       C     0.773520542     0.250755374     0.750000000
C207_C207_C1       C     0.761106098     0.270747074     0.250000000
C208_C208_C1       C     0.761106098     0.270747074     0.750000000
C209_C209_C1       C     0.737585556     0.269991700     0.250000000
C210_C210_C1       C     0.737585556     0.269991700     0.750000000
C211_C211_Q        C     0.799531113     0.251590716     0.250000000
C212_C212_Q        C     0.799531113     0.251590716     0.750000000
C213_C213_Q        C     0.723856843     0.292099844     0.250000000
C214_C214_Q        C     0.723856843     0.292099844     0.750000000
C215_C215_Q        C     0.726612044     0.206309439     0.250000000
C216_C216_Q        C     0.726612044     0.206309439     0.750000000
C217_C217_C2       C     0.173318706     0.144648039     0.250000000
C218_C218_C2       C     0.173318706     0.144648039     0.750000000
C219_C219_C2       C     0.156772496     0.128088463     0.250000000
C220_C220_C2       C     0.156772496     0.128088463     0.750000000
C221_C221_C2       C     0.134142801     0.134151353     0.250000000
C222_C222_C2       C     0.134142801     0.134151353     0.750000000
C223_C223_C2       C     0.128090995     0.156762854     0.250000000
C224_C224_C2       C     0.128090995     0.156762854     0.750000000
C225_C225_C2       C     0.144652745     0.173325901     0.250000000
C226_C226_C2       C     0.144652745     0.173325901     0.750000000
C227_C227_C2       C     0.167259106     0.167269168     0.250000000
C228_C228_C2       C     0.167259106     0.167269168     0.750000000
C229_C229_C2       C     0.115857199     0.115848647     0.250000000
C230_C230_C2       C     0.115857199     0.115848647     0.750000000
C231_C231_C2       C     0.093227504     0.121911537     0.250000000
C232_C232_C2       C     0.093227504     0.121911537     0.750000000
C233_C233_C2       C     0.121909005     0.093237146     0.250000000
C234_C234_C2       C     0.121909005     0.093237146     0.750000000
C235_C235_C2       C     0.076681294     0.105351961     0.250000000
C236_C236_C2       C     0.076681294     0.105351961     0.750000000
C237_C237_C2       C     0.105347255     0.076674099     0.250000000
C238_C238_C2       C     0.105347255     0.076674099     0.750000000
C239_C239_C2       C     0.082740894     0.082730832     0.250000000
C240_C240_C2       C     0.082740894     0.082730832     0.750000000
C241_C241_C2       C     0.105351961     0.423318706     0.250000000
C242_C242_C2       C     0.105351961     0.423318706     0.750000000
C243_C243_C2       C     0.121911537     0.406772496     0.250000000
C244_C244_C2       C     0.121911537     0.406772496     0.750000000
C245_C245_C2       C     0.115848647     0.384142801     0.250000000
C246_C246_C2       C     0.115848647     0.384142801     0.750000000
C247_C247_C2       C     0.093237146     0.378090995     0.250000000
C248_C248_C2       C     0.093237146     0.378090995     0.750000000
C249_C249_C2       C     0.076674099     0.394652745     0.250000000
C250_C250_C2       C     0.076674099     0.394652745     0.750000000
C251_C251_C2       C     0.082730832     0.417259106     0.250000000
C252_C252_C2       C     0.082730832     0.417259106     0.750000000
C253_C253_C2       C     0.134151353     0.365857199     0.250000000
C254_C254_C2       C     0.134151353     0.365857199     0.750000000
C255_C255_C2       C     0.128088463     0.343227504     0.250000000
C256_C256_C2       C     0.128088463     0.343227504     0.750000000
C257_C257_C2       C     0.156762854     0.371909005     0.250000000
C258_C258_C2       C     0.156762854     0.371909005     0.750000000
C259_C259_C2       C     0.144648039     0.326681294     0.250000000
C260_C260_C2       C     0.144648039     0.326681294     0.750000000
C261_C261_C2       C     0.173325901     0.355347255     0.250000000
C262_C262_C2       C     0.173325901     0.355347255     0.750000000
C263_C263_C2       C     0.167269168     0.332740894     0.250000000
C264_C264_C2       C     0.167269168     0.332740894     0.750000000
C265_C265_C2       C     0.020273223     0.798059746     0.250000000
C266_C266_C2       C     0.020273223     0.798059746     0.750000000
C267_C267_C2       C     0.020282675     0.774650420     0.250000000
C268_C268_C2       C     0.020282675     0.774650420     0.750000000
C269_C269_C2       C     0.999993952     0.762935920     0.250000000
C270_C270_C2       C     0.999993952     0.762935920     0.750000000
C271_C271_C2       C     0.979725934     0.774645392     0.250000000
C272_C272_C2       C     0.979725934     0.774645392     0.750000000
C273_C273_C2       C     0.979725017     0.798068161     0.250000000
C274_C274_C2       C     0.979725017     0.798068161     0.750000000
C275_C275_C2       C     0.999992885     0.809770516     0.250000000
C276_C276_C2       C     0.999992885     0.809770516     0.750000000
C277_C277_C2       C     0.000006048     0.737064080     0.250000000
C278_C278_C2       C     0.000006048     0.737064080     0.750000000
C279_C279_C2       C     0.979717325     0.725349580     0.250000000
C280_C280_C2       C     0.979717325     0.725349580     0.750000000
C281_C281_C2       C     0.020274066     0.725354608     0.250000000
C282_C282_C2       C     0.020274066     0.725354608     0.750000000
C283_C283_C2       C     0.979726777     0.701940254     0.250000000
C284_C284_C2       C     0.979726777     0.701940254     0.750000000
C285_C285_C2       C     0.020274983     0.701931839     0.250000000
C286_C286_C2       C     0.020274983     0.701931839     0.750000000
C287_C287_C2       C     0.000007115     0.690229484     0.250000000
C288_C288_C2       C     0.000007115     0.690229484     0.750000000
C289_C289_C2       C     0.548059746     0.229726777     0.250000000
C290_C290_C2       C     0.548059746     0.229726777     0.750000000
C291_C291_C2       C     0.524650420     0.229717325     0.250000000
C292_C292_C2       C     0.524650420     0.229717325     0.750000000
C293_C293_C2       C     0.512935920     0.250006048     0.250000000
C294_C294_C2       C     0.512935920     0.250006048     0.750000000
C295_C295_C2       C     0.524645392     0.270274066     0.250000000
C296_C296_C2       C     0.524645392     0.270274066     0.750000000
C297_C297_C2       C     0.548068161     0.270274983     0.250000000
C298_C298_C2       C     0.548068161     0.270274983     0.750000000
C299_C299_C2       C     0.559770516     0.250007115     0.250000000
C300_C300_C2       C     0.559770516     0.250007115     0.750000000
C301_C301_C2       C     0.487064080     0.249993952     0.250000000
C302_C302_C2       C     0.487064080     0.249993952     0.750000000
C303_C303_C2       C     0.475349580     0.270282675     0.250000000
C304_C304_C2       C     0.475349580     0.270282675     0.750000000
C305_C305_C2       C     0.475354608     0.229725934     0.250000000
C306_C306_C2       C     0.475354608     0.229725934     0.750000000
C307_C307_C2       C     0.451940254     0.270273223     0.250000000
C308_C308_C2       C     0.451940254     0.270273223     0.750000000
C309_C309_C2       C     0.451931839     0.229725017     0.250000000
C310_C310_C2       C     0.451931839     0.229725017     0.750000000
C311_C311_C2       C     0.440229484     0.249992885     0.250000000
C312_C312_C2       C     0.440229484     0.249992885     0.750000000
C313_C313_C2       C     0.855351961     0.173318706     0.250000000
C314_C314_C2       C     0.855351961     0.173318706     0.750000000
C315_C315_C2       C     0.871911537     0.156772496     0.250000000
C316_C316_C2       C     0.871911537     0.156772496     0.750000000
C317_C317_C2       C     0.865848647     0.134142801     0.250000000
C318_C318_C2       C     0.865848647     0.134142801     0.750000000
C319_C319_C2       C     0.843237146     0.128090995     0.250000000
C320_C320_C2       C     0.843237146     0.128090995     0.750000000
C321_C321_C2       C     0.826674099     0.144652745     0.250000000
C322_C322_C2       C     0.826674099     0.144652745     0.750000000
C323_C323_C2       C     0.832730832     0.167259106     0.250000000
C324_C324_C2       C     0.832730832     0.167259106     0.750000000
C325_C325_C2       C     0.884151353     0.115857199     0.250000000
C326_C326_C2       C     0.884151353     0.115857199     0.750000000
C327_C327_C2       C     0.878088463     0.093227504     0.250000000
C328_C328_C2       C     0.878088463     0.093227504     0.750000000
C329_C329_C2       C     0.906762854     0.121909005     0.250000000
C330_C330_C2       C     0.906762854     0.121909005     0.750000000
C331_C331_C2       C     0.894648039     0.076681294     0.250000000
C332_C332_C2       C     0.894648039     0.076681294     0.750000000
C333_C333_C2       C     0.923325901     0.105347255     0.250000000
C334_C334_C2       C     0.923325901     0.105347255     0.750000000
C335_C335_C2       C     0.917269168     0.082740894     0.250000000
C336_C336_C2       C     0.917269168     0.082740894     0.750000000
C337_C337_C2       C     0.923318706     0.394648039     0.250000000
C338_C338_C2       C     0.923318706     0.394648039     0.750000000
C339_C339_C2       C     0.906772496     0.378088463     0.250000000
C340_C340_C2       C     0.906772496     0.378088463     0.750000000
C341_C341_C2       C     0.884142801     0.384151353     0.250000000
C342_C342_C2       C     0.884142801     0.384151353     0.750000000
C343_C343_C2       C     0.878090995     0.406762854     0.250000000
C344_C344_C2       C     0.878090995     0.406762854     0.750000000
C345_C345_C2       C     0.894652745     0.423325901     0.250000000
C346_C346_C2       C     0.894652745     0.423325901     0.750000000
C347_C347_C2       C     0.917259106     0.417269168     0.250000000
C348_C348_C2       C     0.917259106     0.417269168     0.750000000
C349_C349_C2       C     0.865857199     0.365848647     0.250000000
C350_C350_C2       C     0.865857199     0.365848647     0.750000000
C351_C351_C2       C     0.843227504     0.371911537     0.250000000
C352_C352_C2       C     0.843227504     0.371911537     0.750000000
C353_C353_C2       C     0.871909005     0.343237146     0.250000000
C354_C354_C2       C     0.871909005     0.343237146     0.750000000
C355_C355_C2       C     0.826681294     0.355351961     0.250000000
C356_C356_C2       C     0.826681294     0.355351961     0.750000000
C357_C357_C2       C     0.855347255     0.326674099     0.250000000
C358_C358_C2       C     0.855347255     0.326674099     0.750000000
C359_C359_C2       C     0.832740894     0.332730832     0.250000000
C360_C360_C2       C     0.832740894     0.332730832     0.750000000
N361_N361_Q        N     0.182697849     0.182697849     0.250000000
N362_N362_Q        N     0.182697849     0.182697849     0.750000000
N363_N363_Q        N     0.067302151     0.067302151     0.250000000
N364_N364_Q        N     0.067302151     0.067302151     0.750000000
N365_N365_Q        N     0.067302151     0.432697849     0.250000000
N366_N366_Q        N     0.067302151     0.432697849     0.750000000
N367_N367_Q        N     0.182697849     0.317302151     0.250000000
N368_N368_Q        N     0.182697849     0.317302151     0.750000000
N369_N369_Q        N     1.000000000     0.831597081     0.250000000
N370_N370_Q        N     1.000000000     0.831597081     0.750000000
N371_N371_Q        N     1.000000000     0.668402919     0.250000000
N372_N372_Q        N     1.000000000     0.668402919     0.750000000
N373_N373_Q        N     0.581597081     0.250000000     0.250000000
N374_N374_Q        N     0.581597081     0.250000000     0.750000000
N375_N375_Q        N     0.418402919     0.250000000     0.250000000
N376_N376_Q        N     0.418402919     0.250000000     0.750000000
N377_N377_Q        N     0.817302151     0.182697849     0.250000000
N378_N378_Q        N     0.817302151     0.182697849     0.750000000
N379_N379_Q        N     0.932697849     0.067302151     0.250000000
N380_N380_Q        N     0.932697849     0.067302151     0.750000000
N381_N381_Q        N     0.932697849     0.432697849     0.250000000
N382_N382_Q        N     0.932697849     0.432697849     0.750000000
N383_N383_Q        N     0.817302151     0.317302151     0.250000000
N384_N384_Q        N     0.817302151     0.317302151     0.750000000
O385_O385_R        O     0.001526044     0.952482608     0.250000000
O386_O386_R        O     0.001526044     0.952482608     0.750000000
O387_O387_R        O     0.040388246     0.025080289     0.250000000
O388_O388_R        O     0.040388246     0.025080289     0.750000000
O389_O389_R        O     0.958085709     0.022437103     0.250000000
O390_O390_R        O     0.958085709     0.022437103     0.750000000
O391_O391_R        O     0.998473956     0.547517392     0.250000000
O392_O392_R        O     0.998473956     0.547517392     0.750000000
O393_O393_R        O     0.959611754     0.474919711     0.250000000
O394_O394_R        O     0.959611754     0.474919711     0.750000000
O395_O395_R        O     0.041914291     0.477562897     0.250000000
O396_O396_R        O     0.041914291     0.477562897     0.750000000
O397_O397_R        O     0.297517392     0.251526044     0.250000000
O398_O398_R        O     0.297517392     0.251526044     0.750000000
O399_O399_R        O     0.224919711     0.290388246     0.250000000
O400_O400_R        O     0.224919711     0.290388246     0.750000000
O401_O401_R        O     0.227562897     0.208085709     0.250000000
O402_O402_R        O     0.227562897     0.208085709     0.750000000
O403_O403_R        O     0.702482608     0.248473956     0.250000000
O404_O404_R        O     0.702482608     0.248473956     0.750000000
O405_O405_R        O     0.775080289     0.209611754     0.250000000
O406_O406_R        O     0.775080289     0.209611754     0.750000000
O407_O407_R        O     0.772437103     0.291914291     0.250000000
O408_O408_R        O     0.772437103     0.291914291     0.750000000

loop_
_geom_bond_atom_site_label_1
_geom_bond_atom_site_label_2
_geom_bond_distance
H1_Q       C157_Q     1.11046
H2_Q       C158_Q     1.11046
H3_Q       C159_Q     1.11046
H4_Q       C160_Q     1.11046
H5_Q       C161_Q     1.11046
H6_Q       C162_Q     1.11046
H7_R       O385_R     1.02108
H8_R       O386_R     1.02108
H9_R       O387_R     1.02108
H10_R      O388_R     1.02108
H11_R      O389_R     1.02108
H12_R      O390_R     1.02108
H13_Q      C175_Q     1.11046
H14_Q      C176_Q     1.11046
H15_Q      C177_Q     1.11046
H16_Q      C178_Q     1.11046
H17_Q      C179_Q     1.11046
H18_Q      C180_Q     1.11046
H19_R      O391_R     1.02108
H20_R      O392_R     1.02108
H21_R      O393_R     1.02108
H22_R      O394_R     1.02108
H23_R      O395_R     1.02108
H24_R      O396_R     1.02108
H25_Q      C193_Q     1.11046
H26_Q      C194_Q     1.11046
H27_Q      C195_Q     1.11046
H28_Q      C196_Q     1.11046
H29_Q      C197_Q     1.11046
H30_Q      C198_Q     1.11046
H31_R      O397_R     1.02108
H32_R      O398_R     1.02108
H33_R      O399_R     1.02108
H34_R      O400_R     1.02108
H35_R      O401_R     1.02108
H36_R      O402_R     1.02108
H37_Q      C211_Q     1.11046
H38_Q      C212_Q     1.11046
H39_Q      C213_Q     1.11046
H40_Q      C214_Q     1.11046
H41_Q      C215_Q     1.11046
H42_Q      C216_Q     1.11046
H43_R      O403_R     1.02108
H44_R      O404_R     1.02108
H45_R      O405_R     1.02108
H46_R      O406_R     1.02108
H47_R      O407_R     1.02108
H48_R      O408_R     1.02108
H49_R      C237_C2    1.09920
H50_R      C238_C2    1.09920
H51_R      C225_C2    1.09920
H52_R      C226_C2    1.09920
H53_R      C217_C2    1.09920
H54_R      C218_C2    1.09920
H55_R      C235_C2    1.09920
H56_R      C236_C2    1.09920
H57_R      C223_C2    1.09920
H58_R      C224_C2    1.09920
H59_R      C233_C2    1.09920
H60_R      C234_C2    1.09920
H61_R      C219_C2    1.09920
H62_R      C220_C2    1.09920
H63_R      C231_C2    1.09920
H64_R      C232_C2    1.09920
H65_R      C261_C2    1.09920
H66_R      C262_C2    1.09920
H67_R      C249_C2    1.09920
H68_R      C250_C2    1.09920
H69_R      C241_C2    1.09920
H70_R      C242_C2    1.09920
H71_R      C259_C2    1.09920
H72_R      C260_C2    1.09920
H73_R      C247_C2    1.09920
H74_R      C248_C2    1.09920
H75_R      C257_C2    1.09920
H76_R      C258_C2    1.09920
H77_R      C243_C2    1.09920
H78_R      C244_C2    1.09920
H79_R      C255_C2    1.09920
H80_R      C256_C2    1.09920
H81_R      C285_C2    1.09920
H82_R      C286_C2    1.09920
H83_R      C273_C2    1.09920
H84_R      C274_C2    1.09920
H85_R      C265_C2    1.09920
H86_R      C266_C2    1.09920
H87_R      C283_C2    1.09920
H88_R      C284_C2    1.09920
H89_R      C271_C2    1.09920
H90_R      C272_C2    1.09920
H91_R      C281_C2    1.09920
H92_R      C282_C2    1.09920
H93_R      C267_C2    1.09920
H94_R      C268_C2    1.09920
H95_R      C279_C2    1.09920
H96_R      C280_C2    1.09920
H97_R      C309_C2    1.09920
H98_R      C310_C2    1.09920
H99_R      C297_C2    1.09920
H100_R     C298_C2    1.09920
H101_R     C289_C2    1.09920
H102_R     C290_C2    1.09920
H103_R     C307_C2    1.09920
H104_R     C308_C2    1.09920
H105_R     C295_C2    1.09920
H106_R     C296_C2    1.09920
H107_R     C305_C2    1.09920
H108_R     C306_C2    1.09920
H109_R     C291_C2    1.09920
H110_R     C292_C2    1.09920
H111_R     C303_C2    1.09920
H112_R     C304_C2    1.09920
H113_R     C333_C2    1.09920
H114_R     C334_C2    1.09920
H115_R     C321_C2    1.09920
H116_R     C322_C2    1.09920
H117_R     C313_C2    1.09920
H118_R     C314_C2    1.09920
H119_R     C331_C2    1.09920
H120_R     C332_C2    1.09920
H121_R     C319_C2    1.09920
H122_R     C320_C2    1.09920
H123_R     C329_C2    1.09920
H124_R     C330_C2    1.09920
H125_R     C315_C2    1.09920
H126_R     C316_C2    1.09920
H127_R     C327_C2    1.09920
H128_R     C328_C2    1.09920
H129_R     C357_C2    1.09920
H130_R     C358_C2    1.09920
H131_R     C345_C2    1.09920
H132_R     C346_C2    1.09920
H133_R     C337_C2    1.09920
H134_R     C338_C2    1.09920
H135_R     C355_C2    1.09920
H136_R     C356_C2    1.09920
H137_R     C343_C2    1.09920
H138_R     C344_C2    1.09920
H139_R     C353_C2    1.09920
H140_R     C354_C2    1.09920
H141_R     C339_C2    1.09920
H142_R     C340_C2    1.09920
H143_R     C351_C2    1.09920
H144_R     C352_C2    1.09920
C145_C1    C155_C1    1.40162
C145_C1    O385_R     1.43000
C145_C1    C147_C1    1.40162
C146_C1    C156_C1    1.40162
C146_C1    O386_R     1.43000
C146_C1    C148_C1    1.40162
C147_C1    C149_C1    1.40162
C147_C1    C161_Q     1.55000
C147_C1    C145_C1    1.40162
C148_C1    C150_C1    1.40162
C148_C1    C162_Q     1.55000
C148_C1    C146_C1    1.40162
C149_C1    C151_C1    1.40162
C149_C1    C147_C1    1.40162
C149_C1    O387_R     1.43000
C150_C1    C152_C1    1.40162
C150_C1    C148_C1    1.40162
C150_C1    O388_R     1.43000
C151_C1    C157_Q     1.55000
C151_C1    C153_C1    1.40162
C151_C1    C149_C1    1.40162
C152_C1    C158_Q     1.55000
C152_C1    C154_C1    1.40162
C152_C1    C150_C1    1.40162
C153_C1    C155_C1    1.40162
C153_C1    O389_R     1.43000
C153_C1    C151_C1    1.40162
C154_C1    C156_C1    1.40162
C154_C1    O390_R     1.43000
C154_C1    C152_C1    1.40162
C155_C1    C145_C1    1.40162
C155_C1    C153_C1    1.40162
C155_C1    C159_Q     1.55000
C156_C1    C146_C1    1.40162
C156_C1    C154_C1    1.40162
C156_C1    C160_Q     1.55000
C157_Q     C151_C1    1.55000
C157_Q     H1_Q       1.11046
C158_Q     C152_C1    1.55000
C158_Q     H2_Q       1.11046
C159_Q     C155_C1    1.55000
C159_Q     H3_Q       1.11046
C160_Q     C156_C1    1.55000
C160_Q     H4_Q       1.11046
C161_Q     C147_C1    1.55000
C161_Q     H5_Q       1.11046
C162_Q     C148_C1    1.55000
C162_Q     H6_Q       1.11046
C163_C1    C165_C1    1.40162
C163_C1    O391_R     1.43000
C163_C1    C173_C1    1.40162
C164_C1    C166_C1    1.40162
C164_C1    O392_R     1.43000
C164_C1    C174_C1    1.40162
C165_C1    C167_C1    1.40162
C165_C1    C179_Q     1.55000
C165_C1    C163_C1    1.40162
C166_C1    C168_C1    1.40162
C166_C1    C180_Q     1.55000
C166_C1    C164_C1    1.40162
C167_C1    C169_C1    1.40162
C167_C1    O393_R     1.43000
C167_C1    C165_C1    1.40162
C168_C1    C170_C1    1.40162
C168_C1    O394_R     1.43000
C168_C1    C166_C1    1.40162
C169_C1    C167_C1    1.40162
C169_C1    C175_Q     1.55000
C169_C1    C171_C1    1.40162
C170_C1    C168_C1    1.40162
C170_C1    C176_Q     1.55000
C170_C1    C172_C1    1.40162
C171_C1    O395_R     1.43000
C171_C1    C173_C1    1.40162
C171_C1    C169_C1    1.40162
C172_C1    O396_R     1.43000
C172_C1    C174_C1    1.40162
C172_C1    C170_C1    1.40162
C173_C1    C163_C1    1.40162
C173_C1    C171_C1    1.40162
C173_C1    C177_Q     1.55000
C174_C1    C164_C1    1.40162
C174_C1    C172_C1    1.40162
C174_C1    C178_Q     1.55000
C175_Q     C169_C1    1.55000
C175_Q     H13_Q      1.11046
C176_Q     C170_C1    1.55000
C176_Q     H14_Q      1.11046
C177_Q     C173_C1    1.55000
C177_Q     H15_Q      1.11046
C178_Q     C174_C1    1.55000
C178_Q     H16_Q      1.11046
C179_Q     C165_C1    1.55000
C179_Q     H17_Q      1.11046
C180_Q     C166_C1    1.55000
C180_Q     H18_Q      1.11046
C181_C1    O397_R     1.43000
C181_C1    C191_C1    1.40162
C181_C1    C183_C1    1.40162
C182_C1    O398_R     1.43000
C182_C1    C192_C1    1.40162
C182_C1    C184_C1    1.40162
C183_C1    C185_C1    1.40162
C183_C1    C181_C1    1.40162
C183_C1    C197_Q     1.55000
C184_C1    C186_C1    1.40162
C184_C1    C182_C1    1.40162
C184_C1    C198_Q     1.55000
C185_C1    C187_C1    1.40162
C185_C1    O399_R     1.43000
C185_C1    C183_C1    1.40162
C186_C1    C188_C1    1.40162
C186_C1    O400_R     1.43000
C186_C1    C184_C1    1.40162
C187_C1    C193_Q     1.55000
C187_C1    C189_C1    1.40162
C187_C1    C185_C1    1.40162
C188_C1    C194_Q     1.55000
C188_C1    C190_C1    1.40162
C188_C1    C186_C1    1.40162
C189_C1    O401_R     1.43000
C189_C1    C187_C1    1.40162
C189_C1    C191_C1    1.40162
C190_C1    O402_R     1.43000
C190_C1    C188_C1    1.40162
C190_C1    C192_C1    1.40162
C191_C1    C189_C1    1.40162
C191_C1    C195_Q     1.55000
C191_C1    C181_C1    1.40162
C192_C1    C190_C1    1.40162
C192_C1    C196_Q     1.55000
C192_C1    C182_C1    1.40162
C193_Q     C187_C1    1.55000
C193_Q     H25_Q      1.11046
C194_Q     C188_C1    1.55000
C194_Q     H26_Q      1.11046
C195_Q     C191_C1    1.55000
C195_Q     H27_Q      1.11046
C196_Q     C192_C1    1.55000
C196_Q     H28_Q      1.11046
C197_Q     C183_C1    1.55000
C197_Q     H29_Q      1.11046
C198_Q     C184_C1    1.55000
C198_Q     H30_Q      1.11046
C199_C1    O403_R     1.43000
C199_C1    C201_C1    1.40162
C199_C1    C209_C1    1.40162
C200_C1    O404_R     1.43000
C200_C1    C202_C1    1.40162
C200_C1    C210_C1    1.40162
C201_C1    C215_Q     1.55000
C201_C1    C199_C1    1.40162
C201_C1    C203_C1    1.40162
C202_C1    C216_Q     1.55000
C202_C1    C200_C1    1.40162
C202_C1    C204_C1    1.40162
C203_C1    C201_C1    1.40162
C203_C1    O405_R     1.43000
C203_C1    C205_C1    1.40162
C204_C1    C202_C1    1.40162
C204_C1    O406_R     1.43000
C204_C1    C206_C1    1.40162
C205_C1    C211_Q     1.55000
C205_C1    C203_C1    1.40162
C205_C1    C207_C1    1.40162
C206_C1    C212_Q     1.55000
C206_C1    C204_C1    1.40162
C206_C1    C208_C1    1.40162
C207_C1    C209_C1    1.40162
C207_C1    C205_C1    1.40162
C207_C1    O407_R     1.43000
C208_C1    C210_C1    1.40162
C208_C1    C206_C1    1.40162
C208_C1    O408_R     1.43000
C209_C1    C199_C1    1.40162
C209_C1    C213_Q     1.55000
C209_C1    C207_C1    1.40162
C210_C1    C200_C1    1.40162
C210_C1    C214_Q     1.55000
C210_C1    C208_C1    1.40162
C211_Q     C205_C1    1.55000
C211_Q     H37_Q      1.11046
C212_Q     C206_C1    1.55000
C212_Q     H38_Q      1.11046
C213_Q     C209_C1    1.55000
C213_Q     H39_Q      1.11046
C214_Q     C210_C1    1.55000
C214_Q     H40_Q      1.11046
C215_Q     C201_C1    1.55000
C215_Q     H41_Q      1.11046
C216_Q     C202_C1    1.55000
C216_Q     H42_Q      1.11046
C217_C2    C227_C2    1.39483
C217_C2    C219_C2    1.39427
C217_C2    H53_R      1.09920
C218_C2    C228_C2    1.39483
C218_C2    C220_C2    1.39427
C218_C2    H54_R      1.09920
C219_C2    C221_C2    1.39537
C219_C2    H61_R      1.09920
C219_C2    C217_C2    1.39427
C220_C2    C222_C2    1.39537
C220_C2    H62_R      1.09920
C220_C2    C218_C2    1.39427
C221_C2    C229_C2    1.54094
C221_C2    C223_C2    1.39415
C221_C2    C219_C2    1.39537
C222_C2    C230_C2    1.54094
C222_C2    C224_C2    1.39415
C222_C2    C220_C2    1.39537
C223_C2    C225_C2    1.39507
C223_C2    C221_C2    1.39415
C223_C2    H57_R      1.09920
C224_C2    C226_C2    1.39507
C224_C2    C222_C2    1.39415
C224_C2    H58_R      1.09920
C225_C2    C227_C2    1.39393
C225_C2    C223_C2    1.39507
C225_C2    H51_R      1.09920
C226_C2    C228_C2    1.39393
C226_C2    C224_C2    1.39507
C226_C2    H52_R      1.09920
C227_C2    C225_C2    1.39393
C227_C2    C217_C2    1.39483
C227_C2    N361_Q     1.30000
C228_C2    C226_C2    1.39393
C228_C2    C218_C2    1.39483
C228_C2    N362_Q     1.30000
C229_C2    C233_C2    1.39415
C229_C2    C231_C2    1.39537
C229_C2    C221_C2    1.54094
C230_C2    C234_C2    1.39415
C230_C2    C232_C2    1.39537
C230_C2    C222_C2    1.54094
C231_C2    C235_C2    1.39427
C231_C2    C229_C2    1.39537
C231_C2    H63_R      1.09920
C232_C2    C236_C2    1.39427
C232_C2    C230_C2    1.39537
C232_C2    H64_R      1.09920
C233_C2    C237_C2    1.39507
C233_C2    H59_R      1.09920
C233_C2    C229_C2    1.39415
C234_C2    C238_C2    1.39507
C234_C2    H60_R      1.09920
C234_C2    C230_C2    1.39415
C235_C2    C239_C2    1.39483
C235_C2    H55_R      1.09920
C235_C2    C231_C2    1.39427
C236_C2    C240_C2    1.39483
C236_C2    H56_R      1.09920
C236_C2    C232_C2    1.39427
C237_C2    C239_C2    1.39393
C237_C2    C233_C2    1.39507
C237_C2    H49_R      1.09920
C238_C2    C240_C2    1.39393
C238_C2    C234_C2    1.39507
C238_C2    H50_R      1.09920
C239_C2    N363_Q     1.30000
C239_C2    C235_C2    1.39483
C239_C2    C237_C2    1.39393
C240_C2    N364_Q     1.30000
C240_C2    C236_C2    1.39483
C240_C2    C238_C2    1.39393
C241_C2    C251_C2    1.39483
C241_C2    C243_C2    1.39427
C241_C2    H69_R      1.09920
C242_C2    C252_C2    1.39483
C242_C2    C244_C2    1.39427
C242_C2    H70_R      1.09920
C243_C2    C245_C2    1.39537
C243_C2    C241_C2    1.39427
C243_C2    H77_R      1.09920
C244_C2    C246_C2    1.39537
C244_C2    C242_C2    1.39427
C244_C2    H78_R      1.09920
C245_C2    C253_C2    1.54094
C245_C2    C247_C2    1.39415
C245_C2    C243_C2    1.39537
C246_C2    C254_C2    1.54094
C246_C2    C248_C2    1.39415
C246_C2    C244_C2    1.39537
C247_C2    C249_C2    1.39507
C247_C2    C245_C2    1.39415
C247_C2    H73_R      1.09920
C248_C2    C250_C2    1.39507
C248_C2    C246_C2    1.39415
C248_C2    H74_R      1.09920
C249_C2    C251_C2    1.39393
C249_C2    H67_R      1.09920
C249_C2    C247_C2    1.39507
C250_C2    C252_C2    1.39393
C250_C2    H68_R      1.09920
C250_C2    C248_C2    1.39507
C251_C2    C249_C2    1.39393
C251_C2    N365_Q     1.30000
C251_C2    C241_C2    1.39483
C252_C2    C250_C2    1.39393
C252_C2    N366_Q     1.30000
C252_C2    C242_C2    1.39483
C253_C2    C255_C2    1.39537
C253_C2    C257_C2    1.39415
C253_C2    C245_C2    1.54094
C254_C2    C256_C2    1.39537
C254_C2    C258_C2    1.39415
C254_C2    C246_C2    1.54094
C255_C2    C259_C2    1.39427
C255_C2    H79_R      1.09920
C255_C2    C253_C2    1.39537
C256_C2    C260_C2    1.39427
C256_C2    H80_R      1.09920
C256_C2    C254_C2    1.39537
C257_C2    C253_C2    1.39415
C257_C2    H75_R      1.09920
C257_C2    C261_C2    1.39507
C258_C2    C254_C2    1.39415
C258_C2    H76_R      1.09920
C258_C2    C262_C2    1.39507
C259_C2    C263_C2    1.39483
C259_C2    C255_C2    1.39427
C259_C2    H71_R      1.09920
C260_C2    C264_C2    1.39483
C260_C2    C256_C2    1.39427
C260_C2    H72_R      1.09920
C261_C2    C263_C2    1.39393
C261_C2    C257_C2    1.39507
C261_C2    H65_R      1.09920
C262_C2    C264_C2    1.39393
C262_C2    C258_C2    1.39507
C262_C2    H66_R      1.09920
C263_C2    C259_C2    1.39483
C263_C2    N367_Q     1.30000
C263_C2    C261_C2    1.39393
C264_C2    C260_C2    1.39483
C264_C2    N368_Q     1.30000
C264_C2    C262_C2    1.39393
C265_C2    C275_C2    1.39483
C265_C2    C267_C2    1.39427
C265_C2    H85_R      1.09920
C266_C2    C276_C2    1.39483
C266_C2    C268_C2    1.39427
C266_C2    H86_R      1.09920
C267_C2    C269_C2    1.39537
C267_C2    H93_R      1.09920
C267_C2    C265_C2    1.39427
C268_C2    C270_C2    1.39537
C268_C2    H94_R      1.09920
C268_C2    C266_C2    1.39427
C269_C2    C277_C2    1.54094
C269_C2    C271_C2    1.39415
C269_C2    C267_C2    1.39537
C270_C2    C278_C2    1.54094
C270_C2    C272_C2    1.39415
C270_C2    C268_C2    1.39537
C271_C2    C269_C2    1.39415
C271_C2    H89_R      1.09920
C271_C2    C273_C2    1.39507
C272_C2    C270_C2    1.39415
C272_C2    H90_R      1.09920
C272_C2    C274_C2    1.39507
C273_C2    C275_C2    1.39393
C273_C2    C271_C2    1.39507
C273_C2    H83_R      1.09920
C274_C2    C276_C2    1.39393
C274_C2    C272_C2    1.39507
C274_C2    H84_R      1.09920
C275_C2    N369_Q     1.30000
C275_C2    C273_C2    1.39393
C275_C2    C265_C2    1.39483
C276_C2    N370_Q     1.30000
C276_C2    C274_C2    1.39393
C276_C2    C266_C2    1.39483
C277_C2    C279_C2    1.39537
C277_C2    C269_C2    1.54094
C277_C2    C281_C2    1.39415
C278_C2    C280_C2    1.39537
C278_C2    C270_C2    1.54094
C278_C2    C282_C2    1.39415
C279_C2    C277_C2    1.39537
C279_C2    C283_C2    1.39427
C279_C2    H95_R      1.09920
C280_C2    C278_C2    1.39537
C280_C2    C284_C2    1.39427
C280_C2    H96_R      1.09920
C281_C2    C285_C2    1.39507
C281_C2    C277_C2    1.39415
C281_C2    H91_R      1.09920
C282_C2    C286_C2    1.39507
C282_C2    C278_C2    1.39415
C282_C2    H92_R      1.09920
C283_C2    C287_C2    1.39483
C283_C2    C279_C2    1.39427
C283_C2    H87_R      1.09920
C284_C2    C288_C2    1.39483
C284_C2    C280_C2    1.39427
C284_C2    H88_R      1.09920
C285_C2    C287_C2    1.39393
C285_C2    C281_C2    1.39507
C285_C2    H81_R      1.09920
C286_C2    C288_C2    1.39393
C286_C2    C282_C2    1.39507
C286_C2    H82_R      1.09920
C287_C2    N371_Q     1.30000
C287_C2    C283_C2    1.39483
C287_C2    C285_C2    1.39393
C288_C2    N372_Q     1.30000
C288_C2    C284_C2    1.39483
C288_C2    C286_C2    1.39393
C289_C2    C299_C2    1.39483
C289_C2    C291_C2    1.39427
C289_C2    H101_R     1.09920
C290_C2    C300_C2    1.39483
C290_C2    C292_C2    1.39427
C290_C2    H102_R     1.09920
C291_C2    C293_C2    1.39537
C291_C2    C289_C2    1.39427
C291_C2    H109_R     1.09920
C292_C2    C294_C2    1.39537
C292_C2    C290_C2    1.39427
C292_C2    H110_R     1.09920
C293_C2    C301_C2    1.54094
C293_C2    C291_C2    1.39537
C293_C2    C295_C2    1.39415
C294_C2    C302_C2    1.54094
C294_C2    C292_C2    1.39537
C294_C2    C296_C2    1.39415
C295_C2    C293_C2    1.39415
C295_C2    C297_C2    1.39507
C295_C2    H105_R     1.09920
C296_C2    C294_C2    1.39415
C296_C2    C298_C2    1.39507
C296_C2    H106_R     1.09920
C297_C2    C299_C2    1.39393
C297_C2    C295_C2    1.39507
C297_C2    H99_R      1.09920
C298_C2    C300_C2    1.39393
C298_C2    C296_C2    1.39507
C298_C2    H100_R     1.09920
C299_C2    N373_Q     1.30000
C299_C2    C289_C2    1.39483
C299_C2    C297_C2    1.39393
C300_C2    N374_Q     1.30000
C300_C2    C290_C2    1.39483
C300_C2    C298_C2    1.39393
C301_C2    C305_C2    1.39415
C301_C2    C303_C2    1.39537
C301_C2    C293_C2    1.54094
C302_C2    C306_C2    1.39415
C302_C2    C304_C2    1.39537
C302_C2    C294_C2    1.54094
C303_C2    C301_C2    1.39537
C303_C2    C307_C2    1.39427
C303_C2    H111_R     1.09920
C304_C2    C302_C2    1.39537
C304_C2    C308_C2    1.39427
C304_C2    H112_R     1.09920
C305_C2    C309_C2    1.39507
C305_C2    C301_C2    1.39415
C305_C2    H107_R     1.09920
C306_C2    C310_C2    1.39507
C306_C2    C302_C2    1.39415
C306_C2    H108_R     1.09920
C307_C2    C311_C2    1.39483
C307_C2    C303_C2    1.39427
C307_C2    H103_R     1.09920
C308_C2    C312_C2    1.39483
C308_C2    C304_C2    1.39427
C308_C2    H104_R     1.09920
C309_C2    C311_C2    1.39393
C309_C2    C305_C2    1.39507
C309_C2    H97_R      1.09920
C310_C2    C312_C2    1.39393
C310_C2    C306_C2    1.39507
C310_C2    H98_R      1.09920
C311_C2    N375_Q     1.30000
C311_C2    C309_C2    1.39393
C311_C2    C307_C2    1.39483
C312_C2    N376_Q     1.30000
C312_C2    C310_C2    1.39393
C312_C2    C308_C2    1.39483
C313_C2    C323_C2    1.39483
C313_C2    C315_C2    1.39427
C313_C2    H117_R     1.09920
C314_C2    C324_C2    1.39483
C314_C2    C316_C2    1.39427
C314_C2    H118_R     1.09920
C315_C2    C317_C2    1.39537
C315_C2    C313_C2    1.39427
C315_C2    H125_R     1.09920
C316_C2    C318_C2    1.39537
C316_C2    C314_C2    1.39427
C316_C2    H126_R     1.09920
C317_C2    C325_C2    1.54094
C317_C2    C319_C2    1.39415
C317_C2    C315_C2    1.39537
C318_C2    C326_C2    1.54094
C318_C2    C320_C2    1.39415
C318_C2    C316_C2    1.39537
C319_C2    C321_C2    1.39507
C319_C2    H121_R     1.09920
C319_C2    C317_C2    1.39415
C320_C2    C322_C2    1.39507
C320_C2    H122_R     1.09920
C320_C2    C318_C2    1.39415
C321_C2    C323_C2    1.39393
C321_C2    H115_R     1.09920
C321_C2    C319_C2    1.39507
C322_C2    C324_C2    1.39393
C322_C2    H116_R     1.09920
C322_C2    C320_C2    1.39507
C323_C2    C321_C2    1.39393
C323_C2    N377_Q     1.30000
C323_C2    C313_C2    1.39483
C324_C2    C322_C2    1.39393
C324_C2    N378_Q     1.30000
C324_C2    C314_C2    1.39483
C325_C2    C327_C2    1.39537
C325_C2    C329_C2    1.39415
C325_C2    C317_C2    1.54094
C326_C2    C328_C2    1.39537
C326_C2    C330_C2    1.39415
C326_C2    C318_C2    1.54094
C327_C2    C331_C2    1.39427
C327_C2    H127_R     1.09920
C327_C2    C325_C2    1.39537
C328_C2    C332_C2    1.39427
C328_C2    H128_R     1.09920
C328_C2    C326_C2    1.39537
C329_C2    C333_C2    1.39507
C329_C2    C325_C2    1.39415
C329_C2    H123_R     1.09920
C330_C2    C334_C2    1.39507
C330_C2    C326_C2    1.39415
C330_C2    H124_R     1.09920
C331_C2    C335_C2    1.39483
C331_C2    C327_C2    1.39427
C331_C2    H119_R     1.09920
C332_C2    C336_C2    1.39483
C332_C2    C328_C2    1.39427
C332_C2    H120_R     1.09920
C333_C2    C335_C2    1.39393
C333_C2    C329_C2    1.39507
C333_C2    H113_R     1.09920
C334_C2    C336_C2    1.39393
C334_C2    C330_C2    1.39507
C334_C2    H114_R     1.09920
C335_C2    C331_C2    1.39483
C335_C2    C333_C2    1.39393
C335_C2    N379_Q     1.30000
C336_C2    C332_C2    1.39483
C336_C2    C334_C2    1.39393
C336_C2    N380_Q     1.30000
C337_C2    C347_C2    1.39483
C337_C2    C339_C2    1.39427
C337_C2    H133_R     1.09920
C338_C2    C348_C2    1.39483
C338_C2    C340_C2    1.39427
C338_C2    H134_R     1.09920
C339_C2    C341_C2    1.39537
C339_C2    C337_C2    1.39427
C339_C2    H141_R     1.09920
C340_C2    C342_C2    1.39537
C340_C2    C338_C2    1.39427
C340_C2    H142_R     1.09920
C341_C2    C349_C2    1.54094
C341_C2    C343_C2    1.39415
C341_C2    C339_C2    1.39537
C342_C2    C350_C2    1.54094
C342_C2    C344_C2    1.39415
C342_C2    C340_C2    1.39537
C343_C2    C345_C2    1.39507
C343_C2    C341_C2    1.39415
C343_C2    H137_R     1.09920
C344_C2    C346_C2    1.39507
C344_C2    C342_C2    1.39415
C344_C2    H138_R     1.09920
C345_C2    C347_C2    1.39393
C345_C2    C343_C2    1.39507
C345_C2    H131_R     1.09920
C346_C2    C348_C2    1.39393
C346_C2    C344_C2    1.39507
C346_C2    H132_R     1.09920
C347_C2    C345_C2    1.39393
C347_C2    C337_C2    1.39483
C347_C2    N381_Q     1.30000
C348_C2    C346_C2    1.39393
C348_C2    C338_C2    1.39483
C348_C2    N382_Q     1.30000
C349_C2    C353_C2    1.39415
C349_C2    C351_C2    1.39537
C349_C2    C341_C2    1.54094
C350_C2    C354_C2    1.39415
C350_C2    C352_C2    1.39537
C350_C2    C342_C2    1.54094
C351_C2    C355_C2    1.39427
C351_C2    H143_R     1.09920
C351_C2    C349_C2    1.39537
C352_C2    C356_C2    1.39427
C352_C2    H144_R     1.09920
C352_C2    C350_C2    1.39537
C353_C2    C357_C2    1.39507
C353_C2    H139_R     1.09920
C353_C2    C349_C2    1.39415
C354_C2    C358_C2    1.39507
C354_C2    H140_R     1.09920
C354_C2    C350_C2    1.39415
C355_C2    C359_C2    1.39483
C355_C2    H135_R     1.09920
C355_C2    C351_C2    1.39427
C356_C2    C360_C2    1.39483
C356_C2    H136_R     1.09920
C356_C2    C352_C2    1.39427
C357_C2    C359_C2    1.39393
C357_C2    C353_C2    1.39507
C357_C2    H129_R     1.09920
C358_C2    C360_C2    1.39393
C358_C2    C354_C2    1.39507
C358_C2    H130_R     1.09920
C359_C2    N383_Q     1.30000
C359_C2    C355_C2    1.39483
C359_C2    C357_C2    1.39393
C360_C2    N384_Q     1.30000
C360_C2    C356_C2    1.39483
C360_C2    C358_C2    1.39393
N361_Q     C227_C2    1.30000
N362_Q     C228_C2    1.30000
N363_Q     C239_C2    1.30000
N364_Q     C240_C2    1.30000
N365_Q     C251_C2    1.30000
N366_Q     C252_C2    1.30000
N367_Q     C263_C2    1.30000
N368_Q     C264_C2    1.30000
N369_Q     C275_C2    1.30000
N370_Q     C276_C2    1.30000
N371_Q     C287_C2    1.30000
N372_Q     C288_C2    1.30000
N373_Q     C299_C2    1.30000
N374_Q     C300_C2    1.30000
N375_Q     C311_C2    1.30000
N376_Q     C312_C2    1.30000
N377_Q     C323_C2    1.30000
N378_Q     C324_C2    1.30000
N379_Q     C335_C2    1.30000
N380_Q     C336_C2    1.30000
N381_Q     C347_C2    1.30000
N382_Q     C348_C2    1.30000
N383_Q     C359_C2    1.30000
N384_Q     C360_C2    1.30000
O385_R     C145_C1    1.43000
O385_R     H7_R       1.02108
O386_R     C146_C1    1.43000
O386_R     H8_R       1.02108
O387_R     C149_C1    1.43000
O387_R     H9_R       1.02108
O388_R     C150_C1    1.43000
O388_R     H10_R      1.02108
O389_R     C153_C1    1.43000
O389_R     H11_R      1.02108
O390_R     C154_C1    1.43000
O390_R     H12_R      1.02108
O391_R     C163_C1    1.43000
O391_R     H19_R      1.02108
O392_R     C164_C1    1.43000
O392_R     H20_R      1.02108
O393_R     C167_C1    1.43000
O393_R     H21_R      1.02108
O394_R     C168_C1    1.43000
O394_R     H22_R      1.02108
O395_R     C171_C1    1.43000
O395_R     H23_R      1.02108
O396_R     C172_C1    1.43000
O396_R     H24_R      1.02108
O397_R     C181_C1    1.43000
O397_R     H31_R      1.02108
O398_R     C182_C1    1.43000
O398_R     H32_R      1.02108
O399_R     C185_C1    1.43000
O399_R     H33_R      1.02108
O400_R     C186_C1    1.43000
O400_R     H34_R      1.02108
O401_R     C189_C1    1.43000
O401_R     H35_R      1.02108
O402_R     C190_C1    1.43000
O402_R     H36_R      1.02108
O403_R     C199_C1    1.43000
O403_R     H43_R      1.02108
O404_R     C200_C1    1.43000
O404_R     H44_R      1.02108
O405_R     C203_C1    1.43000
O405_R     H45_R      1.02108
O406_R     C204_C1    1.43000
O406_R     H46_R      1.02108
O407_R     C207_C1    1.43000
O407_R     H47_R      1.02108
O408_R     C208_C1    1.43000
O408_R     H48_R      1.02108
