data_T3_TPTZ_CONHNH2_OH_H_H_H-L2_BPNY_CHO_H_H_H_H-FESa-AA

_audit_creation_date     2025-25-02
_audit_creation_method   pyCOFBuilder
_audit_author_name       'root'

_chemical_name_common                  'T3_TPTZ_CONHNH2_OH_H_H_H-L2_BPNY_CHO_H_H_H_H-FESa-AA'
_cell_length_a                           91.317459
_cell_length_b                           91.317459
_cell_length_c                            7.200000
_cell_angle_alpha                        90.00
_cell_angle_beta                         90.00
_cell_angle_gamma                        90.00
_space_group_name_H-M_alt               'P 1'
_space_group_IT_number                  1

loop_
_symmetry_equiv_pos_as_xyz
   'x, y, z'

loop_
   _atom_site_label
   _atom_site_type_symbol
   _atom_site_fract_x
   _atom_site_fract_y
   _atom_site_fract_z
H1_H1_Q            H     0.985126513     0.911028439     0.250000000
H2_H2_Q            H     0.985126513     0.911028439     0.750000000
H3_H3_Q            H     0.084488375     0.031604963     0.250000000
H4_H4_Q            H     0.084488375     0.031604963     0.750000000
H5_H5_Q            H     0.930385112     0.057366598     0.250000000
H6_H6_Q            H     0.930385112     0.057366598     0.750000000
H7_H7_R            H     0.967807531     0.958556891     0.250000000
H8_H8_R            H     0.967807531     0.958556891     0.750000000
H9_H9_R            H     0.051987019     0.992842058     0.250000000
H10_H10_R          H     0.051987019     0.992842058     0.750000000
H11_H11_R          H     0.980205450     0.048601051     0.250000000
H12_H12_R          H     0.980205450     0.048601051     0.750000000
H13_H13_R          H     0.983077938     0.936523859     0.250000000
H14_H14_R          H     0.983077938     0.936523859     0.750000000
H15_H15_R          H     0.063432981     0.017083136     0.250000000
H16_H16_R          H     0.063432981     0.017083136     0.750000000
H17_H17_R          H     0.953489080     0.046393006     0.250000000
H18_H18_R          H     0.953489080     0.046393006     0.750000000
H19_H19_R          H     0.934408675     0.003812726     0.250000000
H20_H20_R          H     0.934408675     0.003812726     0.750000000
H21_H21_R          H     0.029493745     0.941289884     0.250000000
H22_H22_R          H     0.029493745     0.941289884     0.750000000
H23_H23_R          H     0.036097579     0.054897391     0.250000000
H24_H24_R          H     0.036097579     0.054897391     0.750000000
H25_H25_R          H     0.959335459     0.992469061     0.250000000
H26_H26_R          H     0.959335459     0.992469061     0.750000000
H27_H27_R          H     0.026854255     0.968548944     0.250000000
H28_H28_R          H     0.026854255     0.968548944     0.750000000
H29_H29_R          H     0.013810286     0.038981995     0.250000000
H30_H30_R          H     0.013810286     0.038981995     0.750000000
H31_H31_Q          H     0.014873487     0.588971561     0.250000000
H32_H32_Q          H     0.014873487     0.588971561     0.750000000
H33_H33_Q          H     0.915511625     0.468395037     0.250000000
H34_H34_Q          H     0.915511625     0.468395037     0.750000000
H35_H35_Q          H     0.069614888     0.442633402     0.250000000
H36_H36_Q          H     0.069614888     0.442633402     0.750000000
H37_H37_R          H     0.032192469     0.541443109     0.250000000
H38_H38_R          H     0.032192469     0.541443109     0.750000000
H39_H39_R          H     0.948012981     0.507157942     0.250000000
H40_H40_R          H     0.948012981     0.507157942     0.750000000
H41_H41_R          H     0.019794550     0.451398949     0.250000000
H42_H42_R          H     0.019794550     0.451398949     0.750000000
H43_H43_R          H     0.016922062     0.563476141     0.250000000
H44_H44_R          H     0.016922062     0.563476141     0.750000000
H45_H45_R          H     0.936567019     0.482916864     0.250000000
H46_H46_R          H     0.936567019     0.482916864     0.750000000
H47_H47_R          H     0.046510920     0.453606994     0.250000000
H48_H48_R          H     0.046510920     0.453606994     0.750000000
H49_H49_R          H     0.065591325     0.496187274     0.250000000
H50_H50_R          H     0.065591325     0.496187274     0.750000000
H51_H51_R          H     0.970506255     0.558710116     0.250000000
H52_H52_R          H     0.970506255     0.558710116     0.750000000
H53_H53_R          H     0.963902421     0.445102609     0.250000000
H54_H54_R          H     0.963902421     0.445102609     0.750000000
H55_H55_R          H     0.040664541     0.507530939     0.250000000
H56_H56_R          H     0.040664541     0.507530939     0.750000000
H57_H57_R          H     0.973145745     0.531451056     0.250000000
H58_H58_R          H     0.973145745     0.531451056     0.750000000
H59_H59_R          H     0.986189714     0.461018005     0.250000000
H60_H60_R          H     0.986189714     0.461018005     0.750000000
H61_H61_Q          H     0.334488375     0.281604963     0.250000000
H62_H62_Q          H     0.334488375     0.281604963     0.750000000
H63_H63_Q          H     0.180385112     0.307366598     0.250000000
H64_H64_Q          H     0.180385112     0.307366598     0.750000000
H65_H65_Q          H     0.235126513     0.161028439     0.250000000
H66_H66_Q          H     0.235126513     0.161028439     0.750000000
H67_H67_R          H     0.301987020     0.242842058     0.250000000
H68_H68_R          H     0.301987020     0.242842058     0.750000000
H69_H69_R          H     0.230205450     0.298601050     0.250000000
H70_H70_R          H     0.230205450     0.298601050     0.750000000
H71_H71_R          H     0.217807531     0.208556891     0.250000000
H72_H72_R          H     0.217807531     0.208556891     0.750000000
H73_H73_R          H     0.313432982     0.267083135     0.250000000
H74_H74_R          H     0.313432982     0.267083135     0.750000000
H75_H75_R          H     0.203489080     0.296393005     0.250000000
H76_H76_R          H     0.203489080     0.296393005     0.750000000
H77_H77_R          H     0.233077939     0.186523859     0.250000000
H78_H78_R          H     0.233077939     0.186523859     0.750000000
H79_H79_R          H     0.279493745     0.191289884     0.250000000
H80_H80_R          H     0.279493745     0.191289884     0.750000000
H81_H81_R          H     0.286097579     0.304897390     0.250000000
H82_H82_R          H     0.286097579     0.304897390     0.750000000
H83_H83_R          H     0.184408675     0.253812725     0.250000000
H84_H84_R          H     0.184408675     0.253812725     0.750000000
H85_H85_R          H     0.276854255     0.218548944     0.250000000
H86_H86_R          H     0.276854255     0.218548944     0.750000000
H87_H87_R          H     0.263810286     0.288981995     0.250000000
H88_H88_R          H     0.263810286     0.288981995     0.750000000
H89_H89_R          H     0.209335459     0.242469061     0.250000000
H90_H90_R          H     0.209335459     0.242469061     0.750000000
H91_H91_Q          H     0.680385112     0.307366598     0.250000000
H92_H92_Q          H     0.680385112     0.307366598     0.750000000
H93_H93_Q          H     0.735126513     0.161028440     0.250000000
H94_H94_Q          H     0.735126513     0.161028440     0.750000000
H95_H95_Q          H     0.834488375     0.281604963     0.250000000
H96_H96_Q          H     0.834488375     0.281604963     0.750000000
H97_H97_R          H     0.730205450     0.298601051     0.250000000
H98_H98_R          H     0.730205450     0.298601051     0.750000000
H99_H99_R          H     0.717807531     0.208556891     0.250000000
H100_H100_R        H     0.717807531     0.208556891     0.750000000
H101_H101_R        H     0.801987020     0.242842058     0.250000000
H102_H102_R        H     0.801987020     0.242842058     0.750000000
H103_H103_R        H     0.703489080     0.296393006     0.250000000
H104_H104_R        H     0.703489080     0.296393006     0.750000000
H105_H105_R        H     0.733077939     0.186523859     0.250000000
H106_H106_R        H     0.733077939     0.186523859     0.750000000
H107_H107_R        H     0.813432982     0.267083136     0.250000000
H108_H108_R        H     0.813432982     0.267083136     0.750000000
H109_H109_R        H     0.786097580     0.304897391     0.250000000
H110_H110_R        H     0.786097580     0.304897391     0.750000000
H111_H111_R        H     0.684408676     0.253812726     0.250000000
H112_H112_R        H     0.684408676     0.253812726     0.750000000
H113_H113_R        H     0.779493745     0.191289884     0.250000000
H114_H114_R        H     0.779493745     0.191289884     0.750000000
H115_H115_R        H     0.763810286     0.288981995     0.250000000
H116_H116_R        H     0.763810286     0.288981995     0.750000000
H117_H117_R        H     0.709335459     0.242469061     0.250000000
H118_H118_R        H     0.709335459     0.242469061     0.750000000
H119_H119_R        H     0.776854255     0.218548944     0.250000000
H120_H120_R        H     0.776854255     0.218548944     0.750000000
H121_H121_Q        H     0.151271932     0.182182325     0.250000000
H122_H122_Q        H     0.151271932     0.182182325     0.750000000
H123_H123_Q        H     0.098728068     0.067817675     0.250000000
H124_H124_Q        H     0.098728068     0.067817675     0.750000000
H125_H125_R        H     0.123478031     0.080805340     0.250000000
H126_H126_R        H     0.123478031     0.080805340     0.750000000
H127_H127_R        H     0.126521969     0.169194660     0.250000000
H128_H128_R        H     0.126521969     0.169194660     0.750000000
H129_H129_R        H     0.165593238     0.142535109     0.250000000
H130_H130_R        H     0.165593238     0.142535109     0.750000000
H131_H131_R        H     0.084406762     0.107464891     0.250000000
H132_H132_R        H     0.084406762     0.107464891     0.750000000
H133_H133_R        H     0.111134323     0.146638789     0.250000000
H134_H134_R        H     0.111134323     0.146638789     0.750000000
H135_H135_R        H     0.138865677     0.103361211     0.250000000
H136_H136_R        H     0.138865677     0.103361211     0.750000000
H137_H137_R        H     0.150211374     0.119978953     0.250000000
H138_H138_R        H     0.150211374     0.119978953     0.750000000
H139_H139_R        H     0.099788626     0.130021047     0.250000000
H140_H140_R        H     0.099788626     0.130021047     0.750000000
H141_H141_Q        H     0.067817675     0.401271932     0.250000000
H142_H142_Q        H     0.067817675     0.401271932     0.750000000
H143_H143_Q        H     0.182182325     0.348728068     0.250000000
H144_H144_Q        H     0.182182325     0.348728068     0.750000000
H145_H145_R        H     0.169194660     0.373478031     0.250000000
H146_H146_R        H     0.169194660     0.373478031     0.750000000
H147_H147_R        H     0.080805340     0.376521969     0.250000000
H148_H148_R        H     0.080805340     0.376521969     0.750000000
H149_H149_R        H     0.107464891     0.415593238     0.250000000
H150_H150_R        H     0.107464891     0.415593238     0.750000000
H151_H151_R        H     0.142535109     0.334406762     0.250000000
H152_H152_R        H     0.142535109     0.334406762     0.750000000
H153_H153_R        H     0.103361211     0.361134323     0.250000000
H154_H154_R        H     0.103361211     0.361134323     0.750000000
H155_H155_R        H     0.146638789     0.388865677     0.250000000
H156_H156_R        H     0.146638789     0.388865677     0.750000000
H157_H157_R        H     0.130021047     0.400211374     0.250000000
H158_H158_R        H     0.130021047     0.400211374     0.750000000
H159_H159_R        H     0.119978953     0.349788626     0.250000000
H160_H160_R        H     0.119978953     0.349788626     0.750000000
H161_H161_Q        H     0.978143052     0.809011071     0.250000000
H162_H162_Q        H     0.978143052     0.809011071     0.750000000
H163_H163_Q        H     0.021856948     0.690988929     0.250000000
H164_H164_Q        H     0.021856948     0.690988929     0.750000000
H165_H165_R        H     0.030174150     0.717673462     0.250000000
H166_H166_R        H     0.030174150     0.717673462     0.750000000
H167_H167_R        H     0.969825850     0.782326538     0.250000000
H168_H168_R        H     0.969825850     0.782326538     0.750000000
H169_H169_R        H     0.016304559     0.791102948     0.250000000
H170_H170_R        H     0.016304559     0.791102948     0.750000000
H171_H171_R        H     0.983695441     0.708897052     0.250000000
H172_H172_R        H     0.983695441     0.708897052     0.750000000
H173_H173_R        H     0.974894552     0.755496420     0.250000000
H174_H174_R        H     0.974894552     0.755496420     0.750000000
H175_H175_R        H     0.025105448     0.744503580     0.250000000
H176_H176_R        H     0.025105448     0.744503580     0.750000000
H177_H177_R        H     0.021377550     0.764276717     0.250000000
H178_H178_R        H     0.021377550     0.764276717     0.750000000
H179_H179_R        H     0.978622450     0.735723283     0.250000000
H180_H180_R        H     0.978622450     0.735723283     0.750000000
H181_H181_Q        H     0.559011071     0.271856948     0.250000000
H182_H182_Q        H     0.559011071     0.271856948     0.750000000
H183_H183_Q        H     0.440988929     0.228143052     0.250000000
H184_H184_Q        H     0.440988929     0.228143052     0.750000000
H185_H185_R        H     0.467673462     0.219825850     0.250000000
H186_H186_R        H     0.467673462     0.219825850     0.750000000
H187_H187_R        H     0.532326538     0.280174150     0.250000000
H188_H188_R        H     0.532326538     0.280174150     0.750000000
H189_H189_R        H     0.541102948     0.233695441     0.250000000
H190_H190_R        H     0.541102948     0.233695441     0.750000000
H191_H191_R        H     0.458897052     0.266304559     0.250000000
H192_H192_R        H     0.458897052     0.266304559     0.750000000
H193_H193_R        H     0.505496420     0.275105448     0.250000000
H194_H194_R        H     0.505496420     0.275105448     0.750000000
H195_H195_R        H     0.494503580     0.224894552     0.250000000
H196_H196_R        H     0.494503580     0.224894552     0.750000000
H197_H197_R        H     0.514276717     0.228622450     0.250000000
H198_H198_R        H     0.514276717     0.228622450     0.750000000
H199_H199_R        H     0.485723283     0.271377550     0.250000000
H200_H200_R        H     0.485723283     0.271377550     0.750000000
H201_H201_Q        H     0.817817675     0.151271932     0.250000000
H202_H202_Q        H     0.817817675     0.151271932     0.750000000
H203_H203_Q        H     0.932182325     0.098728068     0.250000000
H204_H204_Q        H     0.932182325     0.098728068     0.750000000
H205_H205_R        H     0.919194660     0.123478031     0.250000000
H206_H206_R        H     0.919194660     0.123478031     0.750000000
H207_H207_R        H     0.830805340     0.126521969     0.250000000
H208_H208_R        H     0.830805340     0.126521969     0.750000000
H209_H209_R        H     0.857464891     0.165593238     0.250000000
H210_H210_R        H     0.857464891     0.165593238     0.750000000
H211_H211_R        H     0.892535109     0.084406762     0.250000000
H212_H212_R        H     0.892535109     0.084406762     0.750000000
H213_H213_R        H     0.853361211     0.111134323     0.250000000
H214_H214_R        H     0.853361211     0.111134323     0.750000000
H215_H215_R        H     0.896638789     0.138865677     0.250000000
H216_H216_R        H     0.896638789     0.138865677     0.750000000
H217_H217_R        H     0.880021047     0.150211374     0.250000000
H218_H218_R        H     0.880021047     0.150211374     0.750000000
H219_H219_R        H     0.869978953     0.099788626     0.250000000
H220_H220_R        H     0.869978953     0.099788626     0.750000000
H221_H221_Q        H     0.901271932     0.432182325     0.250000000
H222_H222_Q        H     0.901271932     0.432182325     0.750000000
H223_H223_Q        H     0.848728068     0.317817675     0.250000000
H224_H224_Q        H     0.848728068     0.317817675     0.750000000
H225_H225_R        H     0.873478031     0.330805340     0.250000000
H226_H226_R        H     0.873478031     0.330805340     0.750000000
H227_H227_R        H     0.876521969     0.419194660     0.250000000
H228_H228_R        H     0.876521969     0.419194660     0.750000000
H229_H229_R        H     0.915593238     0.392535109     0.250000000
H230_H230_R        H     0.915593238     0.392535109     0.750000000
H231_H231_R        H     0.834406762     0.357464891     0.250000000
H232_H232_R        H     0.834406762     0.357464891     0.750000000
H233_H233_R        H     0.861134323     0.396638789     0.250000000
H234_H234_R        H     0.861134323     0.396638789     0.750000000
H235_H235_R        H     0.888865677     0.353361211     0.250000000
H236_H236_R        H     0.888865677     0.353361211     0.750000000
H237_H237_R        H     0.900211374     0.369978953     0.250000000
H238_H238_R        H     0.900211374     0.369978953     0.750000000
H239_H239_R        H     0.849788626     0.380021047     0.250000000
H240_H240_R        H     0.849788626     0.380021047     0.750000000
C241_C241_C1       C     0.001567286     0.984758628     0.250000000
C242_C242_C1       C     0.001567286     0.984758628     0.750000000
C243_C243_C1       C     0.012415772     0.008977996     0.250000000
C244_C244_C1       C     0.012415772     0.008977996     0.750000000
C245_C245_C1       C     0.986016941     0.006263376     0.250000000
C246_C246_C1       C     0.986016941     0.006263376     0.750000000
C247_C247_C1       C     0.026117913     0.018890325     0.250000000
C248_C248_C1       C     0.026117913     0.018890325     0.750000000
C249_C249_C1       C     0.040042424     0.012867051     0.250000000
C250_C250_C1       C     0.040042424     0.012867051     0.750000000
C251_C251_C1       C     0.024767113     0.033997984     0.250000000
C252_C252_C1       C     0.024767113     0.033997984     0.750000000
C253_C253_C1       C     0.052418838     0.021939173     0.250000000
C254_C254_C1       C     0.052418838     0.021939173     0.750000000
C255_C255_C1       C     0.037253206     0.042915864     0.250000000
C256_C256_C1       C     0.037253206     0.042915864     0.750000000
C257_C257_C1       C     0.050991884     0.036876745     0.250000000
C258_C258_C1       C     0.050991884     0.036876745     0.750000000
C259_C259_C1       C     0.003300544     0.967936061     0.250000000
C260_C260_C1       C     0.003300544     0.967936061     0.750000000
C261_C261_C1       C     0.991121980     0.958888718     0.250000000
C262_C262_C1       C     0.991121980     0.958888718     0.750000000
C263_C263_C1       C     0.017059561     0.961552059     0.250000000
C264_C264_C1       C     0.017059561     0.961552059     0.750000000
C265_C265_C1       C     0.992790462     0.943634368     0.250000000
C266_C266_C1       C     0.992790462     0.943634368     0.750000000
C267_C267_C1       C     0.018539625     0.946279846     0.250000000
C268_C268_C1       C     0.018539625     0.946279846     0.750000000
C269_C269_C1       C     0.006440256     0.937401361     0.250000000
C270_C270_C1       C     0.006440256     0.937401361     0.750000000
C271_C271_C1       C     0.970581542     0.013173614     0.250000000
C272_C272_C1       C     0.970581542     0.013173614     0.750000000
C273_C273_C1       C     0.968835595     0.028244232     0.250000000
C274_C274_C1       C     0.968835595     0.028244232     0.750000000
C275_C275_C1       C     0.958173326     0.004449958     0.250000000
C276_C276_C1       C     0.958173326     0.004449958     0.750000000
C277_C277_C1       C     0.954790700     0.034426459     0.250000000
C278_C278_C1       C     0.954790700     0.034426459     0.750000000
C279_C279_C1       C     0.944207169     0.010804291     0.250000000
C280_C280_C1       C     0.944207169     0.010804291     0.750000000
C281_C281_C1       C     0.942567860     0.025721894     0.250000000
C282_C282_C1       C     0.942567860     0.025721894     0.750000000
C283_C283_Q        C     0.008060176     0.921605536     0.250000000
C284_C284_Q        C     0.008060176     0.921605536     0.750000000
C285_C285_Q        C     0.063861509     0.046177549     0.250000000
C286_C286_Q        C     0.063861509     0.046177549     0.750000000
C287_C287_Q        C     0.928078314     0.032216915     0.250000000
C288_C288_Q        C     0.928078314     0.032216915     0.750000000
C289_C289_C1       C     0.998432714     0.515241372     0.250000000
C290_C290_C1       C     0.998432714     0.515241372     0.750000000
C291_C291_C1       C     0.987584228     0.491022004     0.250000000
C292_C292_C1       C     0.987584228     0.491022004     0.750000000
C293_C293_C1       C     0.013983059     0.493736624     0.250000000
C294_C294_C1       C     0.013983059     0.493736624     0.750000000
C295_C295_C1       C     0.973882087     0.481109675     0.250000000
C296_C296_C1       C     0.973882087     0.481109675     0.750000000
C297_C297_C1       C     0.959957576     0.487132949     0.250000000
C298_C298_C1       C     0.959957576     0.487132949     0.750000000
C299_C299_C1       C     0.975232887     0.466002016     0.250000000
C300_C300_C1       C     0.975232887     0.466002016     0.750000000
C301_C301_C1       C     0.947581162     0.478060827     0.250000000
C302_C302_C1       C     0.947581162     0.478060827     0.750000000
C303_C303_C1       C     0.962746794     0.457084136     0.250000000
C304_C304_C1       C     0.962746794     0.457084136     0.750000000
C305_C305_C1       C     0.949008116     0.463123255     0.250000000
C306_C306_C1       C     0.949008116     0.463123255     0.750000000
C307_C307_C1       C     0.996699456     0.532063939     0.250000000
C308_C308_C1       C     0.996699456     0.532063939     0.750000000
C309_C309_C1       C     0.008878020     0.541111282     0.250000000
C310_C310_C1       C     0.008878020     0.541111282     0.750000000
C311_C311_C1       C     0.982940439     0.538447941     0.250000000
C312_C312_C1       C     0.982940439     0.538447941     0.750000000
C313_C313_C1       C     0.007209538     0.556365632     0.250000000
C314_C314_C1       C     0.007209538     0.556365632     0.750000000
C315_C315_C1       C     0.981460375     0.553720154     0.250000000
C316_C316_C1       C     0.981460375     0.553720154     0.750000000
C317_C317_C1       C     0.993559744     0.562598639     0.250000000
C318_C318_C1       C     0.993559744     0.562598639     0.750000000
C319_C319_C1       C     0.029418458     0.486826386     0.250000000
C320_C320_C1       C     0.029418458     0.486826386     0.750000000
C321_C321_C1       C     0.031164405     0.471755768     0.250000000
C322_C322_C1       C     0.031164405     0.471755768     0.750000000
C323_C323_C1       C     0.041826674     0.495550042     0.250000000
C324_C324_C1       C     0.041826674     0.495550042     0.750000000
C325_C325_C1       C     0.045209300     0.465573541     0.250000000
C326_C326_C1       C     0.045209300     0.465573541     0.750000000
C327_C327_C1       C     0.055792831     0.489195709     0.250000000
C328_C328_C1       C     0.055792831     0.489195709     0.750000000
C329_C329_C1       C     0.057432140     0.474278106     0.250000000
C330_C330_C1       C     0.057432140     0.474278106     0.750000000
C331_C331_Q        C     0.991939824     0.578394464     0.250000000
C332_C332_Q        C     0.991939824     0.578394464     0.750000000
C333_C333_Q        C     0.936138491     0.453822451     0.250000000
C334_C334_Q        C     0.936138491     0.453822451     0.750000000
C335_C335_Q        C     0.071921686     0.467783085     0.250000000
C336_C336_Q        C     0.071921686     0.467783085     0.750000000
C337_C337_C1       C     0.262415772     0.258977996     0.250000000
C338_C338_C1       C     0.262415772     0.258977996     0.750000000
C339_C339_C1       C     0.236016942     0.256263376     0.250000000
C340_C340_C1       C     0.236016942     0.256263376     0.750000000
C341_C341_C1       C     0.251567286     0.234758628     0.250000000
C342_C342_C1       C     0.251567286     0.234758628     0.750000000
C343_C343_C1       C     0.220581542     0.263173614     0.250000000
C344_C344_C1       C     0.220581542     0.263173614     0.750000000
C345_C345_C1       C     0.218835595     0.278244231     0.250000000
C346_C346_C1       C     0.218835595     0.278244231     0.750000000
C347_C347_C1       C     0.208173326     0.254449958     0.250000000
C348_C348_C1       C     0.208173326     0.254449958     0.750000000
C349_C349_C1       C     0.204790700     0.284426458     0.250000000
C350_C350_C1       C     0.204790700     0.284426458     0.750000000
C351_C351_C1       C     0.194207169     0.260804291     0.250000000
C352_C352_C1       C     0.194207169     0.260804291     0.750000000
C353_C353_C1       C     0.192567860     0.275721894     0.250000000
C354_C354_C1       C     0.192567860     0.275721894     0.750000000
C355_C355_C1       C     0.276117914     0.268890325     0.250000000
C356_C356_C1       C     0.276117914     0.268890325     0.750000000
C357_C357_C1       C     0.290042425     0.262867050     0.250000000
C358_C358_C1       C     0.290042425     0.262867050     0.750000000
C359_C359_C1       C     0.274767114     0.283997983     0.250000000
C360_C360_C1       C     0.274767114     0.283997983     0.750000000
C361_C361_C1       C     0.302418838     0.271939173     0.250000000
C362_C362_C1       C     0.302418838     0.271939173     0.750000000
C363_C363_C1       C     0.287253206     0.292915863     0.250000000
C364_C364_C1       C     0.287253206     0.292915863     0.750000000
C365_C365_C1       C     0.300991884     0.286876745     0.250000000
C366_C366_C1       C     0.300991884     0.286876745     0.750000000
C367_C367_C1       C     0.253300545     0.217936061     0.250000000
C368_C368_C1       C     0.253300545     0.217936061     0.750000000
C369_C369_C1       C     0.241121980     0.208888718     0.250000000
C370_C370_C1       C     0.241121980     0.208888718     0.750000000
C371_C371_C1       C     0.267059561     0.211552059     0.250000000
C372_C372_C1       C     0.267059561     0.211552059     0.750000000
C373_C373_C1       C     0.242790462     0.193634368     0.250000000
C374_C374_C1       C     0.242790462     0.193634368     0.750000000
C375_C375_C1       C     0.268539625     0.196279845     0.250000000
C376_C376_C1       C     0.268539625     0.196279845     0.750000000
C377_C377_C1       C     0.256440256     0.187401361     0.250000000
C378_C378_C1       C     0.256440256     0.187401361     0.750000000
C379_C379_Q        C     0.313861509     0.296177549     0.250000000
C380_C380_Q        C     0.313861509     0.296177549     0.750000000
C381_C381_Q        C     0.178078315     0.282216915     0.250000000
C382_C382_Q        C     0.178078315     0.282216915     0.750000000
C383_C383_Q        C     0.258060176     0.171605536     0.250000000
C384_C384_Q        C     0.258060176     0.171605536     0.750000000
C385_C385_C1       C     0.736016942     0.256263376     0.250000000
C386_C386_C1       C     0.736016942     0.256263376     0.750000000
C387_C387_C1       C     0.751567287     0.234758628     0.250000000
C388_C388_C1       C     0.751567287     0.234758628     0.750000000
C389_C389_C1       C     0.762415772     0.258977996     0.250000000
C390_C390_C1       C     0.762415772     0.258977996     0.750000000
C391_C391_C1       C     0.753300545     0.217936061     0.250000000
C392_C392_C1       C     0.753300545     0.217936061     0.750000000
C393_C393_C1       C     0.741121981     0.208888718     0.250000000
C394_C394_C1       C     0.741121981     0.208888718     0.750000000
C395_C395_C1       C     0.767059561     0.211552059     0.250000000
C396_C396_C1       C     0.767059561     0.211552059     0.750000000
C397_C397_C1       C     0.742790463     0.193634368     0.250000000
C398_C398_C1       C     0.742790463     0.193634368     0.750000000
C399_C399_C1       C     0.768539625     0.196279846     0.250000000
C400_C400_C1       C     0.768539625     0.196279846     0.750000000
C401_C401_C1       C     0.756440256     0.187401361     0.250000000
C402_C402_C1       C     0.756440256     0.187401361     0.750000000
C403_C403_C1       C     0.720581542     0.263173614     0.250000000
C404_C404_C1       C     0.720581542     0.263173614     0.750000000
C405_C405_C1       C     0.718835595     0.278244232     0.250000000
C406_C406_C1       C     0.718835595     0.278244232     0.750000000
C407_C407_C1       C     0.708173326     0.254449958     0.250000000
C408_C408_C1       C     0.708173326     0.254449958     0.750000000
C409_C409_C1       C     0.704790700     0.284426459     0.250000000
C410_C410_C1       C     0.704790700     0.284426459     0.750000000
C411_C411_C1       C     0.694207169     0.260804291     0.250000000
C412_C412_C1       C     0.694207169     0.260804291     0.750000000
C413_C413_C1       C     0.692567860     0.275721894     0.250000000
C414_C414_C1       C     0.692567860     0.275721894     0.750000000
C415_C415_C1       C     0.776117914     0.268890325     0.250000000
C416_C416_C1       C     0.776117914     0.268890325     0.750000000
C417_C417_C1       C     0.790042425     0.262867051     0.250000000
C418_C418_C1       C     0.790042425     0.262867051     0.750000000
C419_C419_C1       C     0.774767114     0.283997984     0.250000000
C420_C420_C1       C     0.774767114     0.283997984     0.750000000
C421_C421_C1       C     0.802418838     0.271939173     0.250000000
C422_C422_C1       C     0.802418838     0.271939173     0.750000000
C423_C423_C1       C     0.787253206     0.292915864     0.250000000
C424_C424_C1       C     0.787253206     0.292915864     0.750000000
C425_C425_C1       C     0.800991884     0.286876745     0.250000000
C426_C426_C1       C     0.800991884     0.286876745     0.750000000
C427_C427_Q        C     0.678078315     0.282216915     0.250000000
C428_C428_Q        C     0.678078315     0.282216915     0.750000000
C429_C429_Q        C     0.758060176     0.171605536     0.250000000
C430_C430_Q        C     0.758060176     0.171605536     0.750000000
C431_C431_Q        C     0.813861510     0.296177549     0.250000000
C432_C432_Q        C     0.813861510     0.296177549     0.750000000
C433_C433_C2       C     0.153590173     0.143440031     0.250000000
C434_C434_C2       C     0.153590173     0.143440031     0.750000000
C435_C435_C2       C     0.144989544     0.130824455     0.250000000
C436_C436_C2       C     0.144989544     0.130824455     0.750000000
C437_C437_C2       C     0.129752236     0.131971631     0.250000000
C438_C438_C2       C     0.129752236     0.131971631     0.750000000
C439_C439_C2       C     0.123137186     0.145731187     0.250000000
C440_C440_C2       C     0.123137186     0.145731187     0.750000000
C441_C441_C2       C     0.131747354     0.158350868     0.250000000
C442_C442_C2       C     0.131747354     0.158350868     0.750000000
C443_C443_C2       C     0.146968962     0.157204816     0.250000000
C444_C444_C2       C     0.146968962     0.157204816     0.750000000
C445_C445_C2       C     0.120247764     0.118028369     0.250000000
C446_C446_C2       C     0.120247764     0.118028369     0.750000000
C447_C447_C2       C     0.105010456     0.119175545     0.250000000
C448_C448_C2       C     0.105010456     0.119175545     0.750000000
C449_C449_C2       C     0.126862814     0.104268813     0.250000000
C450_C450_C2       C     0.126862814     0.104268813     0.750000000
C451_C451_C2       C     0.096409827     0.106559969     0.250000000
C452_C452_C2       C     0.096409827     0.106559969     0.750000000
C453_C453_C2       C     0.118252646     0.091649132     0.250000000
C454_C454_C2       C     0.118252646     0.091649132     0.750000000
C455_C455_C2       C     0.103031038     0.092795184     0.250000000
C456_C456_C2       C     0.103031038     0.092795184     0.750000000
C457_C457_Q        C     0.156540450     0.171222480     0.250000000
C458_C458_Q        C     0.156540450     0.171222480     0.750000000
C459_C459_Q        C     0.093459550     0.078777520     0.250000000
C460_C460_Q        C     0.093459550     0.078777520     0.750000000
C461_C461_C2       C     0.106559969     0.403590173     0.250000000
C462_C462_C2       C     0.106559969     0.403590173     0.750000000
C463_C463_C2       C     0.119175545     0.394989544     0.250000000
C464_C464_C2       C     0.119175545     0.394989544     0.750000000
C465_C465_C2       C     0.118028369     0.379752236     0.250000000
C466_C466_C2       C     0.118028369     0.379752236     0.750000000
C467_C467_C2       C     0.104268813     0.373137186     0.250000000
C468_C468_C2       C     0.104268813     0.373137186     0.750000000
C469_C469_C2       C     0.091649132     0.381747354     0.250000000
C470_C470_C2       C     0.091649132     0.381747354     0.750000000
C471_C471_C2       C     0.092795184     0.396968962     0.250000000
C472_C472_C2       C     0.092795184     0.396968962     0.750000000
C473_C473_C2       C     0.131971631     0.370247764     0.250000000
C474_C474_C2       C     0.131971631     0.370247764     0.750000000
C475_C475_C2       C     0.130824455     0.355010456     0.250000000
C476_C476_C2       C     0.130824455     0.355010456     0.750000000
C477_C477_C2       C     0.145731187     0.376862814     0.250000000
C478_C478_C2       C     0.145731187     0.376862814     0.750000000
C479_C479_C2       C     0.143440031     0.346409827     0.250000000
C480_C480_C2       C     0.143440031     0.346409827     0.750000000
C481_C481_C2       C     0.158350868     0.368252646     0.250000000
C482_C482_C2       C     0.158350868     0.368252646     0.750000000
C483_C483_C2       C     0.157204816     0.353031038     0.250000000
C484_C484_C2       C     0.157204816     0.353031038     0.750000000
C485_C485_Q        C     0.078777520     0.406540450     0.250000000
C486_C486_Q        C     0.078777520     0.406540450     0.750000000
C487_C487_Q        C     0.171222480     0.343459550     0.250000000
C488_C488_Q        C     0.171222480     0.343459550     0.750000000
C489_C489_C2       C     0.007177234     0.783255376     0.250000000
C490_C490_C2       C     0.007177234     0.783255376     0.750000000
C491_C491_C2       C     0.010016230     0.768253254     0.250000000
C492_C492_C2       C     0.010016230     0.768253254     0.750000000
C493_C493_C2       C     0.998430651     0.758290026     0.250000000
C494_C494_C2       C     0.998430651     0.758290026     0.750000000
C495_C495_C2       C     0.984023628     0.763341955     0.250000000
C496_C496_C2       C     0.984023628     0.763341955     0.750000000
C497_C497_C2       C     0.981188474     0.778353725     0.250000000
C498_C498_C2       C     0.981188474     0.778353725     0.750000000
C499_C499_C2       C     0.992762159     0.788306646     0.250000000
C500_C500_C2       C     0.992762159     0.788306646     0.750000000
C501_C501_C2       C     0.001569349     0.741709974     0.250000000
C502_C502_C2       C     0.001569349     0.741709974     0.750000000
C503_C503_C2       C     0.989983770     0.731746746     0.250000000
C504_C504_C2       C     0.989983770     0.731746746     0.750000000
C505_C505_C2       C     0.015976372     0.736658045     0.250000000
C506_C506_C2       C     0.015976372     0.736658045     0.750000000
C507_C507_C2       C     0.992822766     0.716744624     0.250000000
C508_C508_C2       C     0.992822766     0.716744624     0.750000000
C509_C509_C2       C     0.018811526     0.721646275     0.250000000
C510_C510_C2       C     0.018811526     0.721646275     0.750000000
C511_C511_C2       C     0.007237841     0.711693354     0.250000000
C512_C512_C2       C     0.007237841     0.711693354     0.750000000
C513_C513_Q        C     0.989618237     0.804986695     0.250000000
C514_C514_Q        C     0.989618237     0.804986695     0.750000000
C515_C515_Q        C     0.010381763     0.695013305     0.250000000
C516_C516_Q        C     0.010381763     0.695013305     0.750000000
C517_C517_C2       C     0.533255376     0.242822766     0.250000000
C518_C518_C2       C     0.533255376     0.242822766     0.750000000
C519_C519_C2       C     0.518253254     0.239983770     0.250000000
C520_C520_C2       C     0.518253254     0.239983770     0.750000000
C521_C521_C2       C     0.508290026     0.251569349     0.250000000
C522_C522_C2       C     0.508290026     0.251569349     0.750000000
C523_C523_C2       C     0.513341955     0.265976372     0.250000000
C524_C524_C2       C     0.513341955     0.265976372     0.750000000
C525_C525_C2       C     0.528353725     0.268811526     0.250000000
C526_C526_C2       C     0.528353725     0.268811526     0.750000000
C527_C527_C2       C     0.538306646     0.257237841     0.250000000
C528_C528_C2       C     0.538306646     0.257237841     0.750000000
C529_C529_C2       C     0.491709974     0.248430651     0.250000000
C530_C530_C2       C     0.491709974     0.248430651     0.750000000
C531_C531_C2       C     0.481746746     0.260016230     0.250000000
C532_C532_C2       C     0.481746746     0.260016230     0.750000000
C533_C533_C2       C     0.486658045     0.234023628     0.250000000
C534_C534_C2       C     0.486658045     0.234023628     0.750000000
C535_C535_C2       C     0.466744624     0.257177234     0.250000000
C536_C536_C2       C     0.466744624     0.257177234     0.750000000
C537_C537_C2       C     0.471646275     0.231188474     0.250000000
C538_C538_C2       C     0.471646275     0.231188474     0.750000000
C539_C539_C2       C     0.461693354     0.242762159     0.250000000
C540_C540_C2       C     0.461693354     0.242762159     0.750000000
C541_C541_Q        C     0.554986695     0.260381763     0.250000000
C542_C542_Q        C     0.554986695     0.260381763     0.750000000
C543_C543_Q        C     0.445013305     0.239618237     0.250000000
C544_C544_Q        C     0.445013305     0.239618237     0.750000000
C545_C545_C2       C     0.856559969     0.153590173     0.250000000
C546_C546_C2       C     0.856559969     0.153590173     0.750000000
C547_C547_C2       C     0.869175545     0.144989544     0.250000000
C548_C548_C2       C     0.869175545     0.144989544     0.750000000
C549_C549_C2       C     0.868028369     0.129752236     0.250000000
C550_C550_C2       C     0.868028369     0.129752236     0.750000000
C551_C551_C2       C     0.854268813     0.123137186     0.250000000
C552_C552_C2       C     0.854268813     0.123137186     0.750000000
C553_C553_C2       C     0.841649132     0.131747354     0.250000000
C554_C554_C2       C     0.841649132     0.131747354     0.750000000
C555_C555_C2       C     0.842795184     0.146968962     0.250000000
C556_C556_C2       C     0.842795184     0.146968962     0.750000000
C557_C557_C2       C     0.881971631     0.120247764     0.250000000
C558_C558_C2       C     0.881971631     0.120247764     0.750000000
C559_C559_C2       C     0.880824455     0.105010456     0.250000000
C560_C560_C2       C     0.880824455     0.105010456     0.750000000
C561_C561_C2       C     0.895731187     0.126862814     0.250000000
C562_C562_C2       C     0.895731187     0.126862814     0.750000000
C563_C563_C2       C     0.893440031     0.096409827     0.250000000
C564_C564_C2       C     0.893440031     0.096409827     0.750000000
C565_C565_C2       C     0.908350868     0.118252646     0.250000000
C566_C566_C2       C     0.908350868     0.118252646     0.750000000
C567_C567_C2       C     0.907204816     0.103031038     0.250000000
C568_C568_C2       C     0.907204816     0.103031038     0.750000000
C569_C569_Q        C     0.828777520     0.156540450     0.250000000
C570_C570_Q        C     0.828777520     0.156540450     0.750000000
C571_C571_Q        C     0.921222480     0.093459550     0.250000000
C572_C572_Q        C     0.921222480     0.093459550     0.750000000
C573_C573_C2       C     0.903590173     0.393440031     0.250000000
C574_C574_C2       C     0.903590173     0.393440031     0.750000000
C575_C575_C2       C     0.894989544     0.380824455     0.250000000
C576_C576_C2       C     0.894989544     0.380824455     0.750000000
C577_C577_C2       C     0.879752236     0.381971631     0.250000000
C578_C578_C2       C     0.879752236     0.381971631     0.750000000
C579_C579_C2       C     0.873137186     0.395731187     0.250000000
C580_C580_C2       C     0.873137186     0.395731187     0.750000000
C581_C581_C2       C     0.881747354     0.408350868     0.250000000
C582_C582_C2       C     0.881747354     0.408350868     0.750000000
C583_C583_C2       C     0.896968962     0.407204816     0.250000000
C584_C584_C2       C     0.896968962     0.407204816     0.750000000
C585_C585_C2       C     0.870247764     0.368028369     0.250000000
C586_C586_C2       C     0.870247764     0.368028369     0.750000000
C587_C587_C2       C     0.855010456     0.369175545     0.250000000
C588_C588_C2       C     0.855010456     0.369175545     0.750000000
C589_C589_C2       C     0.876862814     0.354268813     0.250000000
C590_C590_C2       C     0.876862814     0.354268813     0.750000000
C591_C591_C2       C     0.846409827     0.356559969     0.250000000
C592_C592_C2       C     0.846409827     0.356559969     0.750000000
C593_C593_C2       C     0.868252646     0.341649132     0.250000000
C594_C594_C2       C     0.868252646     0.341649132     0.750000000
C595_C595_C2       C     0.853031038     0.342795184     0.250000000
C596_C596_C2       C     0.853031038     0.342795184     0.750000000
C597_C597_Q        C     0.906540450     0.421222480     0.250000000
C598_C598_Q        C     0.906540450     0.421222480     0.750000000
C599_C599_Q        C     0.843459550     0.328777520     0.250000000
C600_C600_Q        C     0.843459550     0.328777520     0.750000000
N601_N601_C1       N     0.987587467     0.991022228     0.250000000
N602_N602_C1       N     0.987587467     0.991022228     0.750000000
N603_N603_C1       N     0.998431287     0.015238455     0.250000000
N604_N604_C1       N     0.998431287     0.015238455     0.750000000
N605_N605_C1       N     0.013981245     0.993739317     0.250000000
N606_N606_C1       N     0.013981245     0.993739317     0.750000000
N607_N607_Q        N     0.996258691     0.911158046     0.250000000
N608_N608_Q        N     0.996258691     0.911158046     0.750000000
N609_N609_Q        N     0.078810044     0.041180908     0.250000000
N610_N610_Q        N     0.078810044     0.041180908     0.750000000
N611_N611_Q        N     0.924931266     0.047661046     0.250000000
N612_N612_Q        N     0.924931266     0.047661046     0.750000000
N613_N613_C1       N     0.012412533     0.508977772     0.250000000
N614_N614_C1       N     0.012412533     0.508977772     0.750000000
N615_N615_C1       N     0.001568713     0.484761545     0.250000000
N616_N616_C1       N     0.001568713     0.484761545     0.750000000
N617_N617_C1       N     0.986018755     0.506260683     0.250000000
N618_N618_C1       N     0.986018755     0.506260683     0.750000000
N619_N619_Q        N     0.003741309     0.588841954     0.250000000
N620_N620_Q        N     0.003741309     0.588841954     0.750000000
N621_N621_Q        N     0.921189956     0.458819092     0.250000000
N622_N622_Q        N     0.921189956     0.458819092     0.750000000
N623_N623_Q        N     0.075068734     0.452338954     0.250000000
N624_N624_Q        N     0.075068734     0.452338954     0.750000000
N625_N625_C1       N     0.263981246     0.243739317     0.250000000
N626_N626_C1       N     0.263981246     0.243739317     0.750000000
N627_N627_C1       N     0.237587467     0.241022227     0.250000000
N628_N628_C1       N     0.237587467     0.241022227     0.750000000
N629_N629_C1       N     0.248431288     0.265238455     0.250000000
N630_N630_C1       N     0.248431288     0.265238455     0.750000000
N631_N631_Q        N     0.328810044     0.291180908     0.250000000
N632_N632_Q        N     0.328810044     0.291180908     0.750000000
N633_N633_Q        N     0.174931266     0.297661046     0.250000000
N634_N634_Q        N     0.174931266     0.297661046     0.750000000
N635_N635_Q        N     0.246258691     0.161158046     0.250000000
N636_N636_Q        N     0.246258691     0.161158046     0.750000000
N637_N637_C1       N     0.748431288     0.265238455     0.250000000
N638_N638_C1       N     0.748431288     0.265238455     0.750000000
N639_N639_C1       N     0.763981246     0.243739317     0.250000000
N640_N640_C1       N     0.763981246     0.243739317     0.750000000
N641_N641_C1       N     0.737587467     0.241022228     0.250000000
N642_N642_C1       N     0.737587467     0.241022228     0.750000000
N643_N643_Q        N     0.674931266     0.297661046     0.250000000
N644_N644_Q        N     0.674931266     0.297661046     0.750000000
N645_N645_Q        N     0.746258691     0.161158046     0.250000000
N646_N646_Q        N     0.746258691     0.161158046     0.750000000
N647_N647_Q        N     0.828810044     0.291180908     0.250000000
N648_N648_Q        N     0.828810044     0.291180908     0.750000000
N649_N649_Q        N     0.170189964     0.170189964     0.250000000
N650_N650_Q        N     0.170189964     0.170189964     0.750000000
N651_N651_Q        N     0.079810036     0.079810036     0.250000000
N652_N652_Q        N     0.079810036     0.079810036     0.750000000
N653_N653_Q        N     0.079810036     0.420189964     0.250000000
N654_N654_Q        N     0.079810036     0.420189964     0.750000000
N655_N655_Q        N     0.170189964     0.329810036     0.250000000
N656_N656_Q        N     0.170189964     0.329810036     0.750000000
N657_N657_Q        N     1.000000000     0.813908261     0.250000000
N658_N658_Q        N     1.000000000     0.813908261     0.750000000
N659_N659_Q        N     1.000000000     0.686091739     0.250000000
N660_N660_Q        N     1.000000000     0.686091739     0.750000000
N661_N661_Q        N     0.563908261     0.250000000     0.250000000
N662_N662_Q        N     0.563908261     0.250000000     0.750000000
N663_N663_Q        N     0.436091739     0.250000000     0.250000000
N664_N664_Q        N     0.436091739     0.250000000     0.750000000
N665_N665_Q        N     0.829810036     0.170189964     0.250000000
N666_N666_Q        N     0.829810036     0.170189964     0.750000000
N667_N667_Q        N     0.920189964     0.079810036     0.250000000
N668_N668_Q        N     0.920189964     0.079810036     0.750000000
N669_N669_Q        N     0.920189964     0.420189964     0.250000000
N670_N670_Q        N     0.920189964     0.420189964     0.750000000
N671_N671_Q        N     0.829810036     0.329810036     0.250000000
N672_N672_Q        N     0.829810036     0.329810036     0.750000000
O673_O673_Q        O     0.020842533     0.917527918     0.250000000
O674_O674_Q        O     0.020842533     0.917527918     0.750000000
O675_O675_Q        O     0.061001652     0.059286204     0.250000000
O676_O676_Q        O     0.061001652     0.059286204     0.750000000
O677_O677_Q        O     0.918155815     0.023185878     0.250000000
O678_O678_Q        O     0.918155815     0.023185878     0.750000000
O679_O679_R        O     0.976794709     0.965209645     0.250000000
O680_O680_R        O     0.976794709     0.965209645     0.750000000
O681_O681_R        O     0.041731977     0.997298806     0.250000000
O682_O682_R        O     0.041731977     0.997298806     0.750000000
O683_O683_R        O     0.981473314     0.037491549     0.250000000
O684_O684_R        O     0.981473314     0.037491549     0.750000000
O685_O685_Q        O     0.979157467     0.582472082     0.250000000
O686_O686_Q        O     0.979157467     0.582472082     0.750000000
O687_O687_Q        O     0.938998348     0.440713796     0.250000000
O688_O688_Q        O     0.938998348     0.440713796     0.750000000
O689_O689_Q        O     0.081844185     0.476814122     0.250000000
O690_O690_Q        O     0.081844185     0.476814122     0.750000000
O691_O691_R        O     0.023205291     0.534790355     0.250000000
O692_O692_R        O     0.023205291     0.534790355     0.750000000
O693_O693_R        O     0.958268023     0.502701194     0.250000000
O694_O694_R        O     0.958268023     0.502701194     0.750000000
O695_O695_R        O     0.018526686     0.462508451     0.250000000
O696_O696_R        O     0.018526686     0.462508451     0.750000000
O697_O697_Q        O     0.311001651     0.309286204     0.250000000
O698_O698_Q        O     0.311001651     0.309286204     0.750000000
O699_O699_Q        O     0.168155815     0.273185878     0.250000000
O700_O700_Q        O     0.168155815     0.273185878     0.750000000
O701_O701_Q        O     0.270842533     0.167527918     0.250000000
O702_O702_Q        O     0.270842533     0.167527918     0.750000000
O703_O703_R        O     0.291731977     0.247298806     0.250000000
O704_O704_R        O     0.291731977     0.247298806     0.750000000
O705_O705_R        O     0.231473314     0.287491549     0.250000000
O706_O706_R        O     0.231473314     0.287491549     0.750000000
O707_O707_R        O     0.226794709     0.215209645     0.250000000
O708_O708_R        O     0.226794709     0.215209645     0.750000000
O709_O709_Q        O     0.668155815     0.273185878     0.250000000
O710_O710_Q        O     0.668155815     0.273185878     0.750000000
O711_O711_Q        O     0.770842533     0.167527918     0.250000000
O712_O712_Q        O     0.770842533     0.167527918     0.750000000
O713_O713_Q        O     0.811001652     0.309286204     0.250000000
O714_O714_Q        O     0.811001652     0.309286204     0.750000000
O715_O715_R        O     0.731473314     0.287491549     0.250000000
O716_O716_R        O     0.731473314     0.287491549     0.750000000
O717_O717_R        O     0.726794709     0.215209645     0.250000000
O718_O718_R        O     0.726794709     0.215209645     0.750000000
O719_O719_R        O     0.791731977     0.247298806     0.250000000
O720_O720_R        O     0.791731977     0.247298806     0.750000000

loop_
_geom_bond_atom_site_label_1
_geom_bond_atom_site_label_2
_geom_bond_distance
H1_Q       N607_Q     1.01663
H2_Q       N608_Q     1.01663
H3_Q       N609_Q     1.01663
H4_Q       N610_Q     1.01663
H5_Q       N611_Q     1.01663
H6_Q       N612_Q     1.01663
H7_R       O679_R     1.02108
H8_R       O680_R     1.02108
H9_R       O681_R     1.02108
H10_R      O682_R     1.02108
H11_R      O683_R     1.02108
H12_R      O684_R     1.02108
H13_R      C265_C1    1.09920
H14_R      C266_C1    1.09920
H15_R      C253_C1    1.09920
H16_R      C254_C1    1.09920
H17_R      C277_C1    1.09920
H18_R      C278_C1    1.09920
H19_R      C279_C1    1.09920
H20_R      C280_C1    1.09920
H21_R      C267_C1    1.09920
H22_R      C268_C1    1.09920
H23_R      C255_C1    1.09920
H24_R      C256_C1    1.09920
H25_R      C275_C1    1.09920
H26_R      C276_C1    1.09920
H27_R      C263_C1    1.09920
H28_R      C264_C1    1.09920
H29_R      C251_C1    1.09920
H30_R      C252_C1    1.09920
H31_Q      N619_Q     1.01663
H32_Q      N620_Q     1.01663
H33_Q      N621_Q     1.01663
H34_Q      N622_Q     1.01663
H35_Q      N623_Q     1.01663
H36_Q      N624_Q     1.01663
H37_R      O691_R     1.02108
H38_R      O692_R     1.02108
H39_R      O693_R     1.02108
H40_R      O694_R     1.02108
H41_R      O695_R     1.02108
H42_R      O696_R     1.02108
H43_R      C313_C1    1.09920
H44_R      C314_C1    1.09920
H45_R      C301_C1    1.09920
H46_R      C302_C1    1.09920
H47_R      C325_C1    1.09920
H48_R      C326_C1    1.09920
H49_R      C327_C1    1.09920
H50_R      C328_C1    1.09920
H51_R      C315_C1    1.09920
H52_R      C316_C1    1.09920
H53_R      C303_C1    1.09920
H54_R      C304_C1    1.09920
H55_R      C323_C1    1.09920
H56_R      C324_C1    1.09920
H57_R      C311_C1    1.09920
H58_R      C312_C1    1.09920
H59_R      C299_C1    1.09920
H60_R      C300_C1    1.09920
H61_Q      N631_Q     1.01663
H62_Q      N632_Q     1.01663
H63_Q      N633_Q     1.01663
H64_Q      N634_Q     1.01663
H65_Q      N635_Q     1.01663
H66_Q      N636_Q     1.01663
H67_R      O703_R     1.02108
H68_R      O704_R     1.02108
H69_R      O705_R     1.02108
H70_R      O706_R     1.02108
H71_R      O707_R     1.02108
H72_R      O708_R     1.02108
H73_R      C361_C1    1.09920
H74_R      C362_C1    1.09920
H75_R      C349_C1    1.09920
H76_R      C350_C1    1.09920
H77_R      C373_C1    1.09920
H78_R      C374_C1    1.09920
H79_R      C375_C1    1.09920
H80_R      C376_C1    1.09920
H81_R      C363_C1    1.09920
H82_R      C364_C1    1.09920
H83_R      C351_C1    1.09920
H84_R      C352_C1    1.09920
H85_R      C371_C1    1.09920
H86_R      C372_C1    1.09920
H87_R      C359_C1    1.09920
H88_R      C360_C1    1.09920
H89_R      C347_C1    1.09920
H90_R      C348_C1    1.09920
H91_Q      N643_Q     1.01663
H92_Q      N644_Q     1.01663
H93_Q      N645_Q     1.01663
H94_Q      N646_Q     1.01663
H95_Q      N647_Q     1.01663
H96_Q      N648_Q     1.01663
H97_R      O715_R     1.02108
H98_R      O716_R     1.02108
H99_R      O717_R     1.02108
H100_R     O718_R     1.02108
H101_R     O719_R     1.02108
H102_R     O720_R     1.02108
H103_R     C409_C1    1.09920
H104_R     C410_C1    1.09920
H105_R     C397_C1    1.09920
H106_R     C398_C1    1.09920
H107_R     C421_C1    1.09920
H108_R     C422_C1    1.09920
H109_R     C423_C1    1.09920
H110_R     C424_C1    1.09920
H111_R     C411_C1    1.09920
H112_R     C412_C1    1.09920
H113_R     C399_C1    1.09920
H114_R     C400_C1    1.09920
H115_R     C419_C1    1.09920
H116_R     C420_C1    1.09920
H117_R     C407_C1    1.09920
H118_R     C408_C1    1.09920
H119_R     C395_C1    1.09920
H120_R     C396_C1    1.09920
H121_Q     C457_Q     1.11046
H122_Q     C458_Q     1.11046
H123_Q     C459_Q     1.11046
H124_Q     C460_Q     1.11046
H125_R     C453_C2    1.09920
H126_R     C454_C2    1.09920
H127_R     C441_C2    1.09920
H128_R     C442_C2    1.09920
H129_R     C433_C2    1.09920
H130_R     C434_C2    1.09920
H131_R     C451_C2    1.09920
H132_R     C452_C2    1.09920
H133_R     C439_C2    1.09920
H134_R     C440_C2    1.09920
H135_R     C449_C2    1.09920
H136_R     C450_C2    1.09920
H137_R     C435_C2    1.09920
H138_R     C436_C2    1.09920
H139_R     C447_C2    1.09920
H140_R     C448_C2    1.09920
H141_Q     C485_Q     1.11046
H142_Q     C486_Q     1.11046
H143_Q     C487_Q     1.11046
H144_Q     C488_Q     1.11046
H145_R     C481_C2    1.09920
H146_R     C482_C2    1.09920
H147_R     C469_C2    1.09920
H148_R     C470_C2    1.09920
H149_R     C461_C2    1.09920
H150_R     C462_C2    1.09920
H151_R     C479_C2    1.09920
H152_R     C480_C2    1.09920
H153_R     C467_C2    1.09920
H154_R     C468_C2    1.09920
H155_R     C477_C2    1.09920
H156_R     C478_C2    1.09920
H157_R     C463_C2    1.09920
H158_R     C464_C2    1.09920
H159_R     C475_C2    1.09920
H160_R     C476_C2    1.09920
H161_Q     C513_Q     1.11046
H162_Q     C514_Q     1.11046
H163_Q     C515_Q     1.11046
H164_Q     C516_Q     1.11046
H165_R     C509_C2    1.09920
H166_R     C510_C2    1.09920
H167_R     C497_C2    1.09920
H168_R     C498_C2    1.09920
H169_R     C489_C2    1.09920
H170_R     C490_C2    1.09920
H171_R     C507_C2    1.09920
H172_R     C508_C2    1.09920
H173_R     C495_C2    1.09920
H174_R     C496_C2    1.09920
H175_R     C505_C2    1.09920
H176_R     C506_C2    1.09920
H177_R     C491_C2    1.09920
H178_R     C492_C2    1.09920
H179_R     C503_C2    1.09920
H180_R     C504_C2    1.09920
H181_Q     C541_Q     1.11046
H182_Q     C542_Q     1.11046
H183_Q     C543_Q     1.11046
H184_Q     C544_Q     1.11046
H185_R     C537_C2    1.09920
H186_R     C538_C2    1.09920
H187_R     C525_C2    1.09920
H188_R     C526_C2    1.09920
H189_R     C517_C2    1.09920
H190_R     C518_C2    1.09920
H191_R     C535_C2    1.09920
H192_R     C536_C2    1.09920
H193_R     C523_C2    1.09920
H194_R     C524_C2    1.09920
H195_R     C533_C2    1.09920
H196_R     C534_C2    1.09920
H197_R     C519_C2    1.09920
H198_R     C520_C2    1.09920
H199_R     C531_C2    1.09920
H200_R     C532_C2    1.09920
H201_Q     C569_Q     1.11046
H202_Q     C570_Q     1.11046
H203_Q     C571_Q     1.11046
H204_Q     C572_Q     1.11046
H205_R     C565_C2    1.09920
H206_R     C566_C2    1.09920
H207_R     C553_C2    1.09920
H208_R     C554_C2    1.09920
H209_R     C545_C2    1.09920
H210_R     C546_C2    1.09920
H211_R     C563_C2    1.09920
H212_R     C564_C2    1.09920
H213_R     C551_C2    1.09920
H214_R     C552_C2    1.09920
H215_R     C561_C2    1.09920
H216_R     C562_C2    1.09920
H217_R     C547_C2    1.09920
H218_R     C548_C2    1.09920
H219_R     C559_C2    1.09920
H220_R     C560_C2    1.09920
H221_Q     C597_Q     1.11046
H222_Q     C598_Q     1.11046
H223_Q     C599_Q     1.11046
H224_Q     C600_Q     1.11046
H225_R     C593_C2    1.09920
H226_R     C594_C2    1.09920
H227_R     C581_C2    1.09920
H228_R     C582_C2    1.09920
H229_R     C573_C2    1.09920
H230_R     C574_C2    1.09920
H231_R     C591_C2    1.09920
H232_R     C592_C2    1.09920
H233_R     C579_C2    1.09920
H234_R     C580_C2    1.09920
H235_R     C589_C2    1.09920
H236_R     C590_C2    1.09920
H237_R     C575_C2    1.09920
H238_R     C576_C2    1.09920
H239_R     C587_C2    1.09920
H240_R     C588_C2    1.09920
C241_C1    N601_C1    1.39888
C241_C1    C259_C1    1.54433
C241_C1    N605_C1    1.39915
C242_C1    N602_C1    1.39888
C242_C1    C260_C1    1.54433
C242_C1    N606_C1    1.39915
C243_C1    N603_C1    1.39915
C243_C1    N605_C1    1.39888
C243_C1    C247_C1    1.54433
C244_C1    N604_C1    1.39915
C244_C1    N606_C1    1.39888
C244_C1    C248_C1    1.54433
C245_C1    C271_C1    1.54433
C245_C1    N601_C1    1.39915
C245_C1    N603_C1    1.39888
C246_C1    C272_C1    1.54433
C246_C1    N602_C1    1.39915
C246_C1    N604_C1    1.39888
C247_C1    C251_C1    1.38510
C247_C1    C249_C1    1.38542
C247_C1    C243_C1    1.54433
C248_C1    C252_C1    1.38510
C248_C1    C250_C1    1.38542
C248_C1    C244_C1    1.54433
C249_C1    O681_R     1.43000
C249_C1    C253_C1    1.40130
C249_C1    C247_C1    1.38542
C250_C1    O682_R     1.43000
C250_C1    C254_C1    1.40130
C250_C1    C248_C1    1.38542
C251_C1    C255_C1    1.40115
C251_C1    C247_C1    1.38510
C251_C1    H29_R      1.09920
C252_C1    C256_C1    1.40115
C252_C1    C248_C1    1.38510
C252_C1    H30_R      1.09920
C253_C1    C257_C1    1.37027
C253_C1    C249_C1    1.40130
C253_C1    H15_R      1.09920
C254_C1    C258_C1    1.37027
C254_C1    C250_C1    1.40130
C254_C1    H16_R      1.09920
C255_C1    C257_C1    1.37044
C255_C1    C251_C1    1.40115
C255_C1    H23_R      1.09920
C256_C1    C258_C1    1.37044
C256_C1    C252_C1    1.40115
C256_C1    H24_R      1.09920
C257_C1    C255_C1    1.37044
C257_C1    C253_C1    1.37027
C257_C1    C285_Q     1.45000
C258_C1    C256_C1    1.37044
C258_C1    C254_C1    1.37027
C258_C1    C286_Q     1.45000
C259_C1    C261_C1    1.38542
C259_C1    C263_C1    1.38510
C259_C1    C241_C1    1.54433
C260_C1    C262_C1    1.38542
C260_C1    C264_C1    1.38510
C260_C1    C242_C1    1.54433
C261_C1    O679_R     1.43000
C261_C1    C259_C1    1.38542
C261_C1    C265_C1    1.40130
C262_C1    O680_R     1.43000
C262_C1    C260_C1    1.38542
C262_C1    C266_C1    1.40130
C263_C1    C267_C1    1.40115
C263_C1    C259_C1    1.38510
C263_C1    H27_R      1.09920
C264_C1    C268_C1    1.40115
C264_C1    C260_C1    1.38510
C264_C1    H28_R      1.09920
C265_C1    H13_R      1.09920
C265_C1    C269_C1    1.37027
C265_C1    C261_C1    1.40130
C266_C1    H14_R      1.09920
C266_C1    C270_C1    1.37027
C266_C1    C262_C1    1.40130
C267_C1    C269_C1    1.37044
C267_C1    C263_C1    1.40115
C267_C1    H21_R      1.09920
C268_C1    C270_C1    1.37044
C268_C1    C264_C1    1.40115
C268_C1    H22_R      1.09920
C269_C1    C265_C1    1.37027
C269_C1    C283_Q     1.45000
C269_C1    C267_C1    1.37044
C270_C1    C266_C1    1.37027
C270_C1    C284_Q     1.45000
C270_C1    C268_C1    1.37044
C271_C1    C275_C1    1.38510
C271_C1    C273_C1    1.38542
C271_C1    C245_C1    1.54433
C272_C1    C276_C1    1.38510
C272_C1    C274_C1    1.38542
C272_C1    C246_C1    1.54433
C273_C1    O683_R     1.43000
C273_C1    C277_C1    1.40130
C273_C1    C271_C1    1.38542
C274_C1    O684_R     1.43000
C274_C1    C278_C1    1.40130
C274_C1    C272_C1    1.38542
C275_C1    H25_R      1.09920
C275_C1    C279_C1    1.40115
C275_C1    C271_C1    1.38510
C276_C1    H26_R      1.09920
C276_C1    C280_C1    1.40115
C276_C1    C272_C1    1.38510
C277_C1    C281_C1    1.37027
C277_C1    C273_C1    1.40130
C277_C1    H17_R      1.09920
C278_C1    C282_C1    1.37027
C278_C1    C274_C1    1.40130
C278_C1    H18_R      1.09920
C279_C1    C281_C1    1.37044
C279_C1    C275_C1    1.40115
C279_C1    H19_R      1.09920
C280_C1    C282_C1    1.37044
C280_C1    C276_C1    1.40115
C280_C1    H20_R      1.09920
C281_C1    C287_Q     1.45000
C281_C1    C279_C1    1.37044
C281_C1    C277_C1    1.37027
C282_C1    C288_Q     1.45000
C282_C1    C280_C1    1.37044
C282_C1    C278_C1    1.37027
C283_Q     N607_Q     1.43930
C283_Q     O673_Q     1.22521
C283_Q     C269_C1    1.45000
C284_Q     N608_Q     1.43930
C284_Q     O674_Q     1.22521
C284_Q     C270_C1    1.45000
C285_Q     C257_C1    1.45000
C285_Q     N609_Q     1.43930
C285_Q     O675_Q     1.22521
C286_Q     C258_C1    1.45000
C286_Q     N610_Q     1.43930
C286_Q     O676_Q     1.22521
C287_Q     O677_Q     1.22521
C287_Q     N611_Q     1.43930
C287_Q     C281_C1    1.45000
C288_Q     O678_Q     1.22521
C288_Q     N612_Q     1.43930
C288_Q     C282_C1    1.45000
C289_C1    N617_C1    1.39915
C289_C1    N613_C1    1.39888
C289_C1    C307_C1    1.54433
C290_C1    N618_C1    1.39915
C290_C1    N614_C1    1.39888
C290_C1    C308_C1    1.54433
C291_C1    C295_C1    1.54433
C291_C1    N617_C1    1.39888
C291_C1    N615_C1    1.39915
C292_C1    C296_C1    1.54433
C292_C1    N618_C1    1.39888
C292_C1    N616_C1    1.39915
C293_C1    N615_C1    1.39888
C293_C1    C319_C1    1.54433
C293_C1    N613_C1    1.39915
C294_C1    N616_C1    1.39888
C294_C1    C320_C1    1.54433
C294_C1    N614_C1    1.39915
C295_C1    C299_C1    1.38510
C295_C1    C297_C1    1.38542
C295_C1    C291_C1    1.54433
C296_C1    C300_C1    1.38510
C296_C1    C298_C1    1.38542
C296_C1    C292_C1    1.54433
C297_C1    C301_C1    1.40130
C297_C1    C295_C1    1.38542
C297_C1    O693_R     1.43000
C298_C1    C302_C1    1.40130
C298_C1    C296_C1    1.38542
C298_C1    O694_R     1.43000
C299_C1    C303_C1    1.40115
C299_C1    C295_C1    1.38510
C299_C1    H59_R      1.09920
C300_C1    C304_C1    1.40115
C300_C1    C296_C1    1.38510
C300_C1    H60_R      1.09920
C301_C1    C305_C1    1.37027
C301_C1    C297_C1    1.40130
C301_C1    H45_R      1.09920
C302_C1    C306_C1    1.37027
C302_C1    C298_C1    1.40130
C302_C1    H46_R      1.09920
C303_C1    C305_C1    1.37044
C303_C1    C299_C1    1.40115
C303_C1    H53_R      1.09920
C304_C1    C306_C1    1.37044
C304_C1    C300_C1    1.40115
C304_C1    H54_R      1.09920
C305_C1    C333_Q     1.45000
C305_C1    C303_C1    1.37044
C305_C1    C301_C1    1.37027
C306_C1    C334_Q     1.45000
C306_C1    C304_C1    1.37044
C306_C1    C302_C1    1.37027
C307_C1    C311_C1    1.38510
C307_C1    C309_C1    1.38542
C307_C1    C289_C1    1.54433
C308_C1    C312_C1    1.38510
C308_C1    C310_C1    1.38542
C308_C1    C290_C1    1.54433
C309_C1    C307_C1    1.38542
C309_C1    O691_R     1.43000
C309_C1    C313_C1    1.40130
C310_C1    C308_C1    1.38542
C310_C1    O692_R     1.43000
C310_C1    C314_C1    1.40130
C311_C1    H57_R      1.09920
C311_C1    C315_C1    1.40115
C311_C1    C307_C1    1.38510
C312_C1    H58_R      1.09920
C312_C1    C316_C1    1.40115
C312_C1    C308_C1    1.38510
C313_C1    C317_C1    1.37027
C313_C1    C309_C1    1.40130
C313_C1    H43_R      1.09920
C314_C1    C318_C1    1.37027
C314_C1    C310_C1    1.40130
C314_C1    H44_R      1.09920
C315_C1    C311_C1    1.40115
C315_C1    H51_R      1.09920
C315_C1    C317_C1    1.37044
C316_C1    C312_C1    1.40115
C316_C1    H52_R      1.09920
C316_C1    C318_C1    1.37044
C317_C1    C315_C1    1.37044
C317_C1    C313_C1    1.37027
C317_C1    C331_Q     1.45000
C318_C1    C316_C1    1.37044
C318_C1    C314_C1    1.37027
C318_C1    C332_Q     1.45000
C319_C1    C323_C1    1.38510
C319_C1    C321_C1    1.38542
C319_C1    C293_C1    1.54433
C320_C1    C324_C1    1.38510
C320_C1    C322_C1    1.38542
C320_C1    C294_C1    1.54433
C321_C1    O695_R     1.43000
C321_C1    C325_C1    1.40130
C321_C1    C319_C1    1.38542
C322_C1    O696_R     1.43000
C322_C1    C326_C1    1.40130
C322_C1    C320_C1    1.38542
C323_C1    C327_C1    1.40115
C323_C1    C319_C1    1.38510
C323_C1    H55_R      1.09920
C324_C1    C328_C1    1.40115
C324_C1    C320_C1    1.38510
C324_C1    H56_R      1.09920
C325_C1    C321_C1    1.40130
C325_C1    H47_R      1.09920
C325_C1    C329_C1    1.37027
C326_C1    C322_C1    1.40130
C326_C1    H48_R      1.09920
C326_C1    C330_C1    1.37027
C327_C1    C323_C1    1.40115
C327_C1    C329_C1    1.37044
C327_C1    H49_R      1.09920
C328_C1    C324_C1    1.40115
C328_C1    C330_C1    1.37044
C328_C1    H50_R      1.09920
C329_C1    C327_C1    1.37044
C329_C1    C325_C1    1.37027
C329_C1    C335_Q     1.45000
C330_C1    C328_C1    1.37044
C330_C1    C326_C1    1.37027
C330_C1    C336_Q     1.45000
C331_Q     O685_Q     1.22521
C331_Q     N619_Q     1.43930
C331_Q     C317_C1    1.45000
C332_Q     O686_Q     1.22521
C332_Q     N620_Q     1.43930
C332_Q     C318_C1    1.45000
C333_Q     N621_Q     1.43930
C333_Q     O687_Q     1.22521
C333_Q     C305_C1    1.45000
C334_Q     N622_Q     1.43930
C334_Q     O688_Q     1.22521
C334_Q     C306_C1    1.45000
C335_Q     O689_Q     1.22521
C335_Q     N623_Q     1.43930
C335_Q     C329_C1    1.45000
C336_Q     O690_Q     1.22521
C336_Q     N624_Q     1.43930
C336_Q     C330_C1    1.45000
C337_C1    N629_C1    1.39915
C337_C1    N625_C1    1.39888
C337_C1    C355_C1    1.54433
C338_C1    N630_C1    1.39915
C338_C1    N626_C1    1.39888
C338_C1    C356_C1    1.54433
C339_C1    C343_C1    1.54433
C339_C1    N629_C1    1.39888
C339_C1    N627_C1    1.39915
C340_C1    C344_C1    1.54433
C340_C1    N630_C1    1.39888
C340_C1    N628_C1    1.39915
C341_C1    C367_C1    1.54433
C341_C1    N627_C1    1.39888
C341_C1    N625_C1    1.39915
C342_C1    C368_C1    1.54433
C342_C1    N628_C1    1.39888
C342_C1    N626_C1    1.39915
C343_C1    C347_C1    1.38510
C343_C1    C345_C1    1.38542
C343_C1    C339_C1    1.54433
C344_C1    C348_C1    1.38510
C344_C1    C346_C1    1.38542
C344_C1    C340_C1    1.54433
C345_C1    C343_C1    1.38542
C345_C1    C349_C1    1.40130
C345_C1    O705_R     1.43000
C346_C1    C344_C1    1.38542
C346_C1    C350_C1    1.40130
C346_C1    O706_R     1.43000
C347_C1    C351_C1    1.40115
C347_C1    C343_C1    1.38510
C347_C1    H89_R      1.09920
C348_C1    C352_C1    1.40115
C348_C1    C344_C1    1.38510
C348_C1    H90_R      1.09920
C349_C1    C353_C1    1.37027
C349_C1    C345_C1    1.40130
C349_C1    H75_R      1.09920
C350_C1    C354_C1    1.37027
C350_C1    C346_C1    1.40130
C350_C1    H76_R      1.09920
C351_C1    C353_C1    1.37044
C351_C1    C347_C1    1.40115
C351_C1    H83_R      1.09920
C352_C1    C354_C1    1.37044
C352_C1    C348_C1    1.40115
C352_C1    H84_R      1.09920
C353_C1    C351_C1    1.37044
C353_C1    C381_Q     1.45000
C353_C1    C349_C1    1.37027
C354_C1    C352_C1    1.37044
C354_C1    C382_Q     1.45000
C354_C1    C350_C1    1.37027
C355_C1    C337_C1    1.54433
C355_C1    C359_C1    1.38510
C355_C1    C357_C1    1.38542
C356_C1    C338_C1    1.54433
C356_C1    C360_C1    1.38510
C356_C1    C358_C1    1.38542
C357_C1    O703_R     1.43000
C357_C1    C361_C1    1.40130
C357_C1    C355_C1    1.38542
C358_C1    O704_R     1.43000
C358_C1    C362_C1    1.40130
C358_C1    C356_C1    1.38542
C359_C1    H87_R      1.09920
C359_C1    C355_C1    1.38510
C359_C1    C363_C1    1.40115
C360_C1    H88_R      1.09920
C360_C1    C356_C1    1.38510
C360_C1    C364_C1    1.40115
C361_C1    C357_C1    1.40130
C361_C1    H73_R      1.09920
C361_C1    C365_C1    1.37027
C362_C1    C358_C1    1.40130
C362_C1    H74_R      1.09920
C362_C1    C366_C1    1.37027
C363_C1    C359_C1    1.40115
C363_C1    C365_C1    1.37044
C363_C1    H81_R      1.09920
C364_C1    C360_C1    1.40115
C364_C1    C366_C1    1.37044
C364_C1    H82_R      1.09920
C365_C1    C361_C1    1.37027
C365_C1    C379_Q     1.45000
C365_C1    C363_C1    1.37044
C366_C1    C362_C1    1.37027
C366_C1    C380_Q     1.45000
C366_C1    C364_C1    1.37044
C367_C1    C371_C1    1.38510
C367_C1    C369_C1    1.38542
C367_C1    C341_C1    1.54433
C368_C1    C372_C1    1.38510
C368_C1    C370_C1    1.38542
C368_C1    C342_C1    1.54433
C369_C1    O707_R     1.43000
C369_C1    C373_C1    1.40130
C369_C1    C367_C1    1.38542
C370_C1    O708_R     1.43000
C370_C1    C374_C1    1.40130
C370_C1    C368_C1    1.38542
C371_C1    C375_C1    1.40115
C371_C1    C367_C1    1.38510
C371_C1    H85_R      1.09920
C372_C1    C376_C1    1.40115
C372_C1    C368_C1    1.38510
C372_C1    H86_R      1.09920
C373_C1    C377_C1    1.37027
C373_C1    C369_C1    1.40130
C373_C1    H77_R      1.09920
C374_C1    C378_C1    1.37027
C374_C1    C370_C1    1.40130
C374_C1    H78_R      1.09920
C375_C1    C377_C1    1.37044
C375_C1    C371_C1    1.40115
C375_C1    H79_R      1.09920
C376_C1    C378_C1    1.37044
C376_C1    C372_C1    1.40115
C376_C1    H80_R      1.09920
C377_C1    C383_Q     1.45000
C377_C1    C375_C1    1.37044
C377_C1    C373_C1    1.37027
C378_C1    C384_Q     1.45000
C378_C1    C376_C1    1.37044
C378_C1    C374_C1    1.37027
C379_Q     O697_Q     1.22521
C379_Q     N631_Q     1.43930
C379_Q     C365_C1    1.45000
C380_Q     O698_Q     1.22521
C380_Q     N632_Q     1.43930
C380_Q     C366_C1    1.45000
C381_Q     O699_Q     1.22521
C381_Q     C353_C1    1.45000
C381_Q     N633_Q     1.43930
C382_Q     O700_Q     1.22521
C382_Q     C354_C1    1.45000
C382_Q     N634_Q     1.43930
C383_Q     O701_Q     1.22521
C383_Q     N635_Q     1.43930
C383_Q     C377_C1    1.45000
C384_Q     O702_Q     1.22521
C384_Q     N636_Q     1.43930
C384_Q     C378_C1    1.45000
C385_C1    N641_C1    1.39915
C385_C1    N637_C1    1.39888
C385_C1    C403_C1    1.54433
C386_C1    N642_C1    1.39915
C386_C1    N638_C1    1.39888
C386_C1    C404_C1    1.54433
C387_C1    C391_C1    1.54433
C387_C1    N641_C1    1.39888
C387_C1    N639_C1    1.39915
C388_C1    C392_C1    1.54433
C388_C1    N642_C1    1.39888
C388_C1    N640_C1    1.39915
C389_C1    N639_C1    1.39888
C389_C1    N637_C1    1.39915
C389_C1    C415_C1    1.54433
C390_C1    N640_C1    1.39888
C390_C1    N638_C1    1.39915
C390_C1    C416_C1    1.54433
C391_C1    C395_C1    1.38510
C391_C1    C393_C1    1.38542
C391_C1    C387_C1    1.54433
C392_C1    C396_C1    1.38510
C392_C1    C394_C1    1.38542
C392_C1    C388_C1    1.54433
C393_C1    O717_R     1.43000
C393_C1    C397_C1    1.40130
C393_C1    C391_C1    1.38542
C394_C1    O718_R     1.43000
C394_C1    C398_C1    1.40130
C394_C1    C392_C1    1.38542
C395_C1    C391_C1    1.38510
C395_C1    C399_C1    1.40115
C395_C1    H119_R     1.09920
C396_C1    C392_C1    1.38510
C396_C1    C400_C1    1.40115
C396_C1    H120_R     1.09920
C397_C1    C401_C1    1.37027
C397_C1    C393_C1    1.40130
C397_C1    H105_R     1.09920
C398_C1    C402_C1    1.37027
C398_C1    C394_C1    1.40130
C398_C1    H106_R     1.09920
C399_C1    C401_C1    1.37044
C399_C1    C395_C1    1.40115
C399_C1    H113_R     1.09920
C400_C1    C402_C1    1.37044
C400_C1    C396_C1    1.40115
C400_C1    H114_R     1.09920
C401_C1    C429_Q     1.45000
C401_C1    C397_C1    1.37027
C401_C1    C399_C1    1.37044
C402_C1    C430_Q     1.45000
C402_C1    C398_C1    1.37027
C402_C1    C400_C1    1.37044
C403_C1    C407_C1    1.38510
C403_C1    C385_C1    1.54433
C403_C1    C405_C1    1.38542
C404_C1    C408_C1    1.38510
C404_C1    C386_C1    1.54433
C404_C1    C406_C1    1.38542
C405_C1    C409_C1    1.40130
C405_C1    C403_C1    1.38542
C405_C1    O715_R     1.43000
C406_C1    C410_C1    1.40130
C406_C1    C404_C1    1.38542
C406_C1    O716_R     1.43000
C407_C1    C411_C1    1.40115
C407_C1    H117_R     1.09920
C407_C1    C403_C1    1.38510
C408_C1    C412_C1    1.40115
C408_C1    H118_R     1.09920
C408_C1    C404_C1    1.38510
C409_C1    C413_C1    1.37027
C409_C1    H103_R     1.09920
C409_C1    C405_C1    1.40130
C410_C1    C414_C1    1.37027
C410_C1    H104_R     1.09920
C410_C1    C406_C1    1.40130
C411_C1    C413_C1    1.37044
C411_C1    C407_C1    1.40115
C411_C1    H111_R     1.09920
C412_C1    C414_C1    1.37044
C412_C1    C408_C1    1.40115
C412_C1    H112_R     1.09920
C413_C1    C411_C1    1.37044
C413_C1    C427_Q     1.45000
C413_C1    C409_C1    1.37027
C414_C1    C412_C1    1.37044
C414_C1    C428_Q     1.45000
C414_C1    C410_C1    1.37027
C415_C1    C389_C1    1.54433
C415_C1    C417_C1    1.38542
C415_C1    C419_C1    1.38510
C416_C1    C390_C1    1.54433
C416_C1    C418_C1    1.38542
C416_C1    C420_C1    1.38510
C417_C1    O719_R     1.43000
C417_C1    C421_C1    1.40130
C417_C1    C415_C1    1.38542
C418_C1    O720_R     1.43000
C418_C1    C422_C1    1.40130
C418_C1    C416_C1    1.38542
C419_C1    H115_R     1.09920
C419_C1    C415_C1    1.38510
C419_C1    C423_C1    1.40115
C420_C1    H116_R     1.09920
C420_C1    C416_C1    1.38510
C420_C1    C424_C1    1.40115
C421_C1    C417_C1    1.40130
C421_C1    H107_R     1.09920
C421_C1    C425_C1    1.37027
C422_C1    C418_C1    1.40130
C422_C1    H108_R     1.09920
C422_C1    C426_C1    1.37027
C423_C1    C425_C1    1.37044
C423_C1    C419_C1    1.40115
C423_C1    H109_R     1.09920
C424_C1    C426_C1    1.37044
C424_C1    C420_C1    1.40115
C424_C1    H110_R     1.09920
C425_C1    C421_C1    1.37027
C425_C1    C431_Q     1.45000
C425_C1    C423_C1    1.37044
C426_C1    C422_C1    1.37027
C426_C1    C432_Q     1.45000
C426_C1    C424_C1    1.37044
C427_Q     O709_Q     1.22521
C427_Q     C413_C1    1.45000
C427_Q     N643_Q     1.43930
C428_Q     O710_Q     1.22521
C428_Q     C414_C1    1.45000
C428_Q     N644_Q     1.43930
C429_Q     N645_Q     1.43930
C429_Q     C401_C1    1.45000
C429_Q     O711_Q     1.22521
C430_Q     N646_Q     1.43930
C430_Q     C402_C1    1.45000
C430_Q     O712_Q     1.22521
C431_Q     O713_Q     1.22521
C431_Q     C425_C1    1.45000
C431_Q     N647_Q     1.43930
C432_Q     O714_Q     1.22521
C432_Q     C426_C1    1.45000
C432_Q     N648_Q     1.43930
C433_C2    C443_C2    1.39483
C433_C2    C435_C2    1.39427
C433_C2    H129_R     1.09920
C434_C2    C444_C2    1.39483
C434_C2    C436_C2    1.39427
C434_C2    H130_R     1.09920
C435_C2    C437_C2    1.39537
C435_C2    C433_C2    1.39427
C435_C2    H137_R     1.09920
C436_C2    C438_C2    1.39537
C436_C2    C434_C2    1.39427
C436_C2    H138_R     1.09920
C437_C2    C445_C2    1.54094
C437_C2    C439_C2    1.39415
C437_C2    C435_C2    1.39537
C438_C2    C446_C2    1.54094
C438_C2    C440_C2    1.39415
C438_C2    C436_C2    1.39537
C439_C2    C441_C2    1.39507
C439_C2    C437_C2    1.39415
C439_C2    H133_R     1.09920
C440_C2    C442_C2    1.39507
C440_C2    C438_C2    1.39415
C440_C2    H134_R     1.09920
C441_C2    C443_C2    1.39393
C441_C2    C439_C2    1.39507
C441_C2    H127_R     1.09920
C442_C2    C444_C2    1.39393
C442_C2    C440_C2    1.39507
C442_C2    H128_R     1.09920
C443_C2    C441_C2    1.39393
C443_C2    C433_C2    1.39483
C443_C2    C457_Q     1.55000
C444_C2    C442_C2    1.39393
C444_C2    C434_C2    1.39483
C444_C2    C458_Q     1.55000
C445_C2    C447_C2    1.39537
C445_C2    C449_C2    1.39415
C445_C2    C437_C2    1.54094
C446_C2    C448_C2    1.39537
C446_C2    C450_C2    1.39415
C446_C2    C438_C2    1.54094
C447_C2    C451_C2    1.39427
C447_C2    H139_R     1.09920
C447_C2    C445_C2    1.39537
C448_C2    C452_C2    1.39427
C448_C2    H140_R     1.09920
C448_C2    C446_C2    1.39537
C449_C2    C453_C2    1.39507
C449_C2    H135_R     1.09920
C449_C2    C445_C2    1.39415
C450_C2    C454_C2    1.39507
C450_C2    H136_R     1.09920
C450_C2    C446_C2    1.39415
C451_C2    C455_C2    1.39483
C451_C2    H131_R     1.09920
C451_C2    C447_C2    1.39427
C452_C2    C456_C2    1.39483
C452_C2    H132_R     1.09920
C452_C2    C448_C2    1.39427
C453_C2    C455_C2    1.39393
C453_C2    C449_C2    1.39507
C453_C2    H125_R     1.09920
C454_C2    C456_C2    1.39393
C454_C2    C450_C2    1.39507
C454_C2    H126_R     1.09920
C455_C2    C459_Q     1.55000
C455_C2    C451_C2    1.39483
C455_C2    C453_C2    1.39393
C456_C2    C460_Q     1.55000
C456_C2    C452_C2    1.39483
C456_C2    C454_C2    1.39393
C457_Q     C443_C2    1.55000
C457_Q     H121_Q     1.11046
C457_Q     N649_Q     1.25000
C458_Q     C444_C2    1.55000
C458_Q     H122_Q     1.11046
C458_Q     N650_Q     1.25000
C459_Q     N651_Q     1.25000
C459_Q     C455_C2    1.55000
C459_Q     H123_Q     1.11046
C460_Q     N652_Q     1.25000
C460_Q     C456_C2    1.55000
C460_Q     H124_Q     1.11046
C461_C2    C471_C2    1.39483
C461_C2    H149_R     1.09920
C461_C2    C463_C2    1.39427
C462_C2    C472_C2    1.39483
C462_C2    H150_R     1.09920
C462_C2    C464_C2    1.39427
C463_C2    C461_C2    1.39427
C463_C2    C465_C2    1.39537
C463_C2    H157_R     1.09920
C464_C2    C462_C2    1.39427
C464_C2    C466_C2    1.39537
C464_C2    H158_R     1.09920
C465_C2    C467_C2    1.39415
C465_C2    C473_C2    1.54094
C465_C2    C463_C2    1.39537
C466_C2    C468_C2    1.39415
C466_C2    C474_C2    1.54094
C466_C2    C464_C2    1.39537
C467_C2    C469_C2    1.39507
C467_C2    H153_R     1.09920
C467_C2    C465_C2    1.39415
C468_C2    C470_C2    1.39507
C468_C2    H154_R     1.09920
C468_C2    C466_C2    1.39415
C469_C2    C467_C2    1.39507
C469_C2    H147_R     1.09920
C469_C2    C471_C2    1.39393
C470_C2    C468_C2    1.39507
C470_C2    H148_R     1.09920
C470_C2    C472_C2    1.39393
C471_C2    C469_C2    1.39393
C471_C2    C485_Q     1.55000
C471_C2    C461_C2    1.39483
C472_C2    C470_C2    1.39393
C472_C2    C486_Q     1.55000
C472_C2    C462_C2    1.39483
C473_C2    C477_C2    1.39415
C473_C2    C475_C2    1.39537
C473_C2    C465_C2    1.54094
C474_C2    C478_C2    1.39415
C474_C2    C476_C2    1.39537
C474_C2    C466_C2    1.54094
C475_C2    C479_C2    1.39427
C475_C2    C473_C2    1.39537
C475_C2    H159_R     1.09920
C476_C2    C480_C2    1.39427
C476_C2    C474_C2    1.39537
C476_C2    H160_R     1.09920
C477_C2    C481_C2    1.39507
C477_C2    C473_C2    1.39415
C477_C2    H155_R     1.09920
C478_C2    C482_C2    1.39507
C478_C2    C474_C2    1.39415
C478_C2    H156_R     1.09920
C479_C2    C483_C2    1.39483
C479_C2    C475_C2    1.39427
C479_C2    H151_R     1.09920
C480_C2    C484_C2    1.39483
C480_C2    C476_C2    1.39427
C480_C2    H152_R     1.09920
C481_C2    C483_C2    1.39393
C481_C2    C477_C2    1.39507
C481_C2    H145_R     1.09920
C482_C2    C484_C2    1.39393
C482_C2    C478_C2    1.39507
C482_C2    H146_R     1.09920
C483_C2    C481_C2    1.39393
C483_C2    C479_C2    1.39483
C483_C2    C487_Q     1.55000
C484_C2    C482_C2    1.39393
C484_C2    C480_C2    1.39483
C484_C2    C488_Q     1.55000
C485_Q     N653_Q     1.25000
C485_Q     C471_C2    1.55000
C485_Q     H141_Q     1.11046
C486_Q     N654_Q     1.25000
C486_Q     C472_C2    1.55000
C486_Q     H142_Q     1.11046
C487_Q     C483_C2    1.55000
C487_Q     N655_Q     1.25000
C487_Q     H143_Q     1.11046
C488_Q     C484_C2    1.55000
C488_Q     N656_Q     1.25000
C488_Q     H144_Q     1.11046
C489_C2    C499_C2    1.39483
C489_C2    C491_C2    1.39427
C489_C2    H169_R     1.09920
C490_C2    C500_C2    1.39483
C490_C2    C492_C2    1.39427
C490_C2    H170_R     1.09920
C491_C2    C493_C2    1.39537
C491_C2    H177_R     1.09920
C491_C2    C489_C2    1.39427
C492_C2    C494_C2    1.39537
C492_C2    H178_R     1.09920
C492_C2    C490_C2    1.39427
C493_C2    C495_C2    1.39415
C493_C2    C501_C2    1.54094
C493_C2    C491_C2    1.39537
C494_C2    C496_C2    1.39415
C494_C2    C502_C2    1.54094
C494_C2    C492_C2    1.39537
C495_C2    H173_R     1.09920
C495_C2    C497_C2    1.39507
C495_C2    C493_C2    1.39415
C496_C2    H174_R     1.09920
C496_C2    C498_C2    1.39507
C496_C2    C494_C2    1.39415
C497_C2    C495_C2    1.39507
C497_C2    H167_R     1.09920
C497_C2    C499_C2    1.39393
C498_C2    C496_C2    1.39507
C498_C2    H168_R     1.09920
C498_C2    C500_C2    1.39393
C499_C2    C497_C2    1.39393
C499_C2    C489_C2    1.39483
C499_C2    C513_Q     1.55000
C500_C2    C498_C2    1.39393
C500_C2    C490_C2    1.39483
C500_C2    C514_Q     1.55000
C501_C2    C503_C2    1.39537
C501_C2    C493_C2    1.54094
C501_C2    C505_C2    1.39415
C502_C2    C504_C2    1.39537
C502_C2    C494_C2    1.54094
C502_C2    C506_C2    1.39415
C503_C2    H179_R     1.09920
C503_C2    C501_C2    1.39537
C503_C2    C507_C2    1.39427
C504_C2    H180_R     1.09920
C504_C2    C502_C2    1.39537
C504_C2    C508_C2    1.39427
C505_C2    C509_C2    1.39507
C505_C2    C501_C2    1.39415
C505_C2    H175_R     1.09920
C506_C2    C510_C2    1.39507
C506_C2    C502_C2    1.39415
C506_C2    H176_R     1.09920
C507_C2    H171_R     1.09920
C507_C2    C511_C2    1.39483
C507_C2    C503_C2    1.39427
C508_C2    H172_R     1.09920
C508_C2    C512_C2    1.39483
C508_C2    C504_C2    1.39427
C509_C2    C511_C2    1.39393
C509_C2    C505_C2    1.39507
C509_C2    H165_R     1.09920
C510_C2    C512_C2    1.39393
C510_C2    C506_C2    1.39507
C510_C2    H166_R     1.09920
C511_C2    C507_C2    1.39483
C511_C2    C515_Q     1.55000
C511_C2    C509_C2    1.39393
C512_C2    C508_C2    1.39483
C512_C2    C516_Q     1.55000
C512_C2    C510_C2    1.39393
C513_Q     H161_Q     1.11046
C513_Q     N657_Q     1.25000
C513_Q     C499_C2    1.55000
C514_Q     H162_Q     1.11046
C514_Q     N658_Q     1.25000
C514_Q     C500_C2    1.55000
C515_Q     N659_Q     1.25000
C515_Q     C511_C2    1.55000
C515_Q     H163_Q     1.11046
C516_Q     N660_Q     1.25000
C516_Q     C512_C2    1.55000
C516_Q     H164_Q     1.11046
C517_C2    C527_C2    1.39483
C517_C2    C519_C2    1.39427
C517_C2    H189_R     1.09920
C518_C2    C528_C2    1.39483
C518_C2    C520_C2    1.39427
C518_C2    H190_R     1.09920
C519_C2    C521_C2    1.39537
C519_C2    C517_C2    1.39427
C519_C2    H197_R     1.09920
C520_C2    C522_C2    1.39537
C520_C2    C518_C2    1.39427
C520_C2    H198_R     1.09920
C521_C2    C529_C2    1.54094
C521_C2    C523_C2    1.39415
C521_C2    C519_C2    1.39537
C522_C2    C530_C2    1.54094
C522_C2    C524_C2    1.39415
C522_C2    C520_C2    1.39537
C523_C2    C525_C2    1.39507
C523_C2    C521_C2    1.39415
C523_C2    H193_R     1.09920
C524_C2    C526_C2    1.39507
C524_C2    C522_C2    1.39415
C524_C2    H194_R     1.09920
C525_C2    C527_C2    1.39393
C525_C2    C523_C2    1.39507
C525_C2    H187_R     1.09920
C526_C2    C528_C2    1.39393
C526_C2    C524_C2    1.39507
C526_C2    H188_R     1.09920
C527_C2    C525_C2    1.39393
C527_C2    C517_C2    1.39483
C527_C2    C541_Q     1.55000
C528_C2    C526_C2    1.39393
C528_C2    C518_C2    1.39483
C528_C2    C542_Q     1.55000
C529_C2    C533_C2    1.39415
C529_C2    C531_C2    1.39537
C529_C2    C521_C2    1.54094
C530_C2    C534_C2    1.39415
C530_C2    C532_C2    1.39537
C530_C2    C522_C2    1.54094
C531_C2    C535_C2    1.39427
C531_C2    C529_C2    1.39537
C531_C2    H199_R     1.09920
C532_C2    C536_C2    1.39427
C532_C2    C530_C2    1.39537
C532_C2    H200_R     1.09920
C533_C2    C537_C2    1.39507
C533_C2    C529_C2    1.39415
C533_C2    H195_R     1.09920
C534_C2    C538_C2    1.39507
C534_C2    C530_C2    1.39415
C534_C2    H196_R     1.09920
C535_C2    C539_C2    1.39483
C535_C2    C531_C2    1.39427
C535_C2    H191_R     1.09920
C536_C2    C540_C2    1.39483
C536_C2    C532_C2    1.39427
C536_C2    H192_R     1.09920
C537_C2    H185_R     1.09920
C537_C2    C539_C2    1.39393
C537_C2    C533_C2    1.39507
C538_C2    H186_R     1.09920
C538_C2    C540_C2    1.39393
C538_C2    C534_C2    1.39507
C539_C2    C543_Q     1.55000
C539_C2    C537_C2    1.39393
C539_C2    C535_C2    1.39483
C540_C2    C544_Q     1.55000
C540_C2    C538_C2    1.39393
C540_C2    C536_C2    1.39483
C541_Q     C527_C2    1.55000
C541_Q     N661_Q     1.25000
C541_Q     H181_Q     1.11046
C542_Q     C528_C2    1.55000
C542_Q     N662_Q     1.25000
C542_Q     H182_Q     1.11046
C543_Q     N663_Q     1.25000
C543_Q     C539_C2    1.55000
C543_Q     H183_Q     1.11046
C544_Q     N664_Q     1.25000
C544_Q     C540_C2    1.55000
C544_Q     H184_Q     1.11046
C545_C2    C555_C2    1.39483
C545_C2    C547_C2    1.39427
C545_C2    H209_R     1.09920
C546_C2    C556_C2    1.39483
C546_C2    C548_C2    1.39427
C546_C2    H210_R     1.09920
C547_C2    C549_C2    1.39537
C547_C2    C545_C2    1.39427
C547_C2    H217_R     1.09920
C548_C2    C550_C2    1.39537
C548_C2    C546_C2    1.39427
C548_C2    H218_R     1.09920
C549_C2    C551_C2    1.39415
C549_C2    C547_C2    1.39537
C549_C2    C557_C2    1.54094
C550_C2    C552_C2    1.39415
C550_C2    C548_C2    1.39537
C550_C2    C558_C2    1.54094
C551_C2    H213_R     1.09920
C551_C2    C553_C2    1.39507
C551_C2    C549_C2    1.39415
C552_C2    H214_R     1.09920
C552_C2    C554_C2    1.39507
C552_C2    C550_C2    1.39415
C553_C2    C555_C2    1.39393
C553_C2    C551_C2    1.39507
C553_C2    H207_R     1.09920
C554_C2    C556_C2    1.39393
C554_C2    C552_C2    1.39507
C554_C2    H208_R     1.09920
C555_C2    C569_Q     1.55000
C555_C2    C553_C2    1.39393
C555_C2    C545_C2    1.39483
C556_C2    C570_Q     1.55000
C556_C2    C554_C2    1.39393
C556_C2    C546_C2    1.39483
C557_C2    C549_C2    1.54094
C557_C2    C559_C2    1.39537
C557_C2    C561_C2    1.39415
C558_C2    C550_C2    1.54094
C558_C2    C560_C2    1.39537
C558_C2    C562_C2    1.39415
C559_C2    H219_R     1.09920
C559_C2    C563_C2    1.39427
C559_C2    C557_C2    1.39537
C560_C2    H220_R     1.09920
C560_C2    C564_C2    1.39427
C560_C2    C558_C2    1.39537
C561_C2    C565_C2    1.39507
C561_C2    C557_C2    1.39415
C561_C2    H215_R     1.09920
C562_C2    C566_C2    1.39507
C562_C2    C558_C2    1.39415
C562_C2    H216_R     1.09920
C563_C2    C567_C2    1.39483
C563_C2    C559_C2    1.39427
C563_C2    H211_R     1.09920
C564_C2    C568_C2    1.39483
C564_C2    C560_C2    1.39427
C564_C2    H212_R     1.09920
C565_C2    C567_C2    1.39393
C565_C2    C561_C2    1.39507
C565_C2    H205_R     1.09920
C566_C2    C568_C2    1.39393
C566_C2    C562_C2    1.39507
C566_C2    H206_R     1.09920
C567_C2    C571_Q     1.55000
C567_C2    C563_C2    1.39483
C567_C2    C565_C2    1.39393
C568_C2    C572_Q     1.55000
C568_C2    C564_C2    1.39483
C568_C2    C566_C2    1.39393
C569_Q     H201_Q     1.11046
C569_Q     C555_C2    1.55000
C569_Q     N665_Q     1.25000
C570_Q     H202_Q     1.11046
C570_Q     C556_C2    1.55000
C570_Q     N666_Q     1.25000
C571_Q     N667_Q     1.25000
C571_Q     C567_C2    1.55000
C571_Q     H203_Q     1.11046
C572_Q     N668_Q     1.25000
C572_Q     C568_C2    1.55000
C572_Q     H204_Q     1.11046
C573_C2    C575_C2    1.39427
C573_C2    C583_C2    1.39483
C573_C2    H229_R     1.09920
C574_C2    C576_C2    1.39427
C574_C2    C584_C2    1.39483
C574_C2    H230_R     1.09920
C575_C2    C577_C2    1.39537
C575_C2    H237_R     1.09920
C575_C2    C573_C2    1.39427
C576_C2    C578_C2    1.39537
C576_C2    H238_R     1.09920
C576_C2    C574_C2    1.39427
C577_C2    C585_C2    1.54094
C577_C2    C579_C2    1.39415
C577_C2    C575_C2    1.39537
C578_C2    C586_C2    1.54094
C578_C2    C580_C2    1.39415
C578_C2    C576_C2    1.39537
C579_C2    H233_R     1.09920
C579_C2    C577_C2    1.39415
C579_C2    C581_C2    1.39507
C580_C2    H234_R     1.09920
C580_C2    C578_C2    1.39415
C580_C2    C582_C2    1.39507
C581_C2    C579_C2    1.39507
C581_C2    H227_R     1.09920
C581_C2    C583_C2    1.39393
C582_C2    C580_C2    1.39507
C582_C2    H228_R     1.09920
C582_C2    C584_C2    1.39393
C583_C2    C597_Q     1.55000
C583_C2    C581_C2    1.39393
C583_C2    C573_C2    1.39483
C584_C2    C598_Q     1.55000
C584_C2    C582_C2    1.39393
C584_C2    C574_C2    1.39483
C585_C2    C589_C2    1.39415
C585_C2    C587_C2    1.39537
C585_C2    C577_C2    1.54094
C586_C2    C590_C2    1.39415
C586_C2    C588_C2    1.39537
C586_C2    C578_C2    1.54094
C587_C2    C591_C2    1.39427
C587_C2    C585_C2    1.39537
C587_C2    H239_R     1.09920
C588_C2    C592_C2    1.39427
C588_C2    C586_C2    1.39537
C588_C2    H240_R     1.09920
C589_C2    C593_C2    1.39507
C589_C2    C585_C2    1.39415
C589_C2    H235_R     1.09920
C590_C2    C594_C2    1.39507
C590_C2    C586_C2    1.39415
C590_C2    H236_R     1.09920
C591_C2    C595_C2    1.39483
C591_C2    C587_C2    1.39427
C591_C2    H231_R     1.09920
C592_C2    C596_C2    1.39483
C592_C2    C588_C2    1.39427
C592_C2    H232_R     1.09920
C593_C2    H225_R     1.09920
C593_C2    C595_C2    1.39393
C593_C2    C589_C2    1.39507
C594_C2    H226_R     1.09920
C594_C2    C596_C2    1.39393
C594_C2    C590_C2    1.39507
C595_C2    C599_Q     1.55000
C595_C2    C593_C2    1.39393
C595_C2    C591_C2    1.39483
C596_C2    C600_Q     1.55000
C596_C2    C594_C2    1.39393
C596_C2    C592_C2    1.39483
C597_Q     N669_Q     1.25000
C597_Q     C583_C2    1.55000
C597_Q     H221_Q     1.11046
C598_Q     N670_Q     1.25000
C598_Q     C584_C2    1.55000
C598_Q     H222_Q     1.11046
C599_Q     N671_Q     1.25000
C599_Q     H223_Q     1.11046
C599_Q     C595_C2    1.55000
C600_Q     N672_Q     1.25000
C600_Q     H224_Q     1.11046
C600_Q     C596_C2    1.55000
N601_C1    C245_C1    1.39915
N601_C1    C241_C1    1.39888
N602_C1    C246_C1    1.39915
N602_C1    C242_C1    1.39888
N603_C1    C245_C1    1.39888
N603_C1    C243_C1    1.39915
N604_C1    C246_C1    1.39888
N604_C1    C244_C1    1.39915
N605_C1    C241_C1    1.39915
N605_C1    C243_C1    1.39888
N606_C1    C242_C1    1.39915
N606_C1    C244_C1    1.39888
N607_Q     H1_Q       1.01663
N607_Q     C283_Q     1.43930
N608_Q     H2_Q       1.01663
N608_Q     C284_Q     1.43930
N609_Q     C285_Q     1.43930
N609_Q     H3_Q       1.01663
N610_Q     C286_Q     1.43930
N610_Q     H4_Q       1.01663
N611_Q     C287_Q     1.43930
N611_Q     H5_Q       1.01663
N612_Q     C288_Q     1.43930
N612_Q     H6_Q       1.01663
N613_C1    C289_C1    1.39888
N613_C1    C293_C1    1.39915
N614_C1    C290_C1    1.39888
N614_C1    C294_C1    1.39915
N615_C1    C291_C1    1.39915
N615_C1    C293_C1    1.39888
N616_C1    C292_C1    1.39915
N616_C1    C294_C1    1.39888
N617_C1    C291_C1    1.39888
N617_C1    C289_C1    1.39915
N618_C1    C292_C1    1.39888
N618_C1    C290_C1    1.39915
N619_Q     C331_Q     1.43930
N619_Q     H31_Q      1.01663
N620_Q     C332_Q     1.43930
N620_Q     H32_Q      1.01663
N621_Q     H33_Q      1.01663
N621_Q     C333_Q     1.43930
N622_Q     H34_Q      1.01663
N622_Q     C334_Q     1.43930
N623_Q     C335_Q     1.43930
N623_Q     H35_Q      1.01663
N624_Q     C336_Q     1.43930
N624_Q     H36_Q      1.01663
N625_C1    C341_C1    1.39915
N625_C1    C337_C1    1.39888
N626_C1    C342_C1    1.39915
N626_C1    C338_C1    1.39888
N627_C1    C341_C1    1.39888
N627_C1    C339_C1    1.39915
N628_C1    C342_C1    1.39888
N628_C1    C340_C1    1.39915
N629_C1    C339_C1    1.39888
N629_C1    C337_C1    1.39915
N630_C1    C340_C1    1.39888
N630_C1    C338_C1    1.39915
N631_Q     C379_Q     1.43930
N631_Q     H61_Q      1.01663
N632_Q     C380_Q     1.43930
N632_Q     H62_Q      1.01663
N633_Q     C381_Q     1.43930
N633_Q     H63_Q      1.01663
N634_Q     C382_Q     1.43930
N634_Q     H64_Q      1.01663
N635_Q     H65_Q      1.01663
N635_Q     C383_Q     1.43930
N636_Q     H66_Q      1.01663
N636_Q     C384_Q     1.43930
N637_C1    C389_C1    1.39915
N637_C1    C385_C1    1.39888
N638_C1    C390_C1    1.39915
N638_C1    C386_C1    1.39888
N639_C1    C389_C1    1.39888
N639_C1    C387_C1    1.39915
N640_C1    C390_C1    1.39888
N640_C1    C388_C1    1.39915
N641_C1    C387_C1    1.39888
N641_C1    C385_C1    1.39915
N642_C1    C388_C1    1.39888
N642_C1    C386_C1    1.39915
N643_Q     C427_Q     1.43930
N643_Q     H91_Q      1.01663
N644_Q     C428_Q     1.43930
N644_Q     H92_Q      1.01663
N645_Q     H93_Q      1.01663
N645_Q     C429_Q     1.43930
N646_Q     H94_Q      1.01663
N646_Q     C430_Q     1.43930
N647_Q     C431_Q     1.43930
N647_Q     H95_Q      1.01663
N648_Q     C432_Q     1.43930
N648_Q     H96_Q      1.01663
N649_Q     C457_Q     1.25000
N650_Q     C458_Q     1.25000
N651_Q     C459_Q     1.25000
N652_Q     C460_Q     1.25000
N653_Q     C485_Q     1.25000
N654_Q     C486_Q     1.25000
N655_Q     C487_Q     1.25000
N656_Q     C488_Q     1.25000
N657_Q     C513_Q     1.25000
N658_Q     C514_Q     1.25000
N659_Q     C515_Q     1.25000
N660_Q     C516_Q     1.25000
N661_Q     C541_Q     1.25000
N662_Q     C542_Q     1.25000
N663_Q     C543_Q     1.25000
N664_Q     C544_Q     1.25000
N665_Q     C569_Q     1.25000
N666_Q     C570_Q     1.25000
N667_Q     C571_Q     1.25000
N668_Q     C572_Q     1.25000
N669_Q     C597_Q     1.25000
N670_Q     C598_Q     1.25000
N671_Q     C599_Q     1.25000
N672_Q     C600_Q     1.25000
O673_Q     C283_Q     1.22521
O674_Q     C284_Q     1.22521
O675_Q     C285_Q     1.22521
O676_Q     C286_Q     1.22521
O677_Q     C287_Q     1.22521
O678_Q     C288_Q     1.22521
O679_R     H7_R       1.02108
O679_R     C261_C1    1.43000
O680_R     H8_R       1.02108
O680_R     C262_C1    1.43000
O681_R     C249_C1    1.43000
O681_R     H9_R       1.02108
O682_R     C250_C1    1.43000
O682_R     H10_R      1.02108
O683_R     C273_C1    1.43000
O683_R     H11_R      1.02108
O684_R     C274_C1    1.43000
O684_R     H12_R      1.02108
O685_Q     C331_Q     1.22521
O686_Q     C332_Q     1.22521
O687_Q     C333_Q     1.22521
O688_Q     C334_Q     1.22521
O689_Q     C335_Q     1.22521
O690_Q     C336_Q     1.22521
O691_R     C309_C1    1.43000
O691_R     H37_R      1.02108
O692_R     C310_C1    1.43000
O692_R     H38_R      1.02108
O693_R     C297_C1    1.43000
O693_R     H39_R      1.02108
O694_R     C298_C1    1.43000
O694_R     H40_R      1.02108
O695_R     C321_C1    1.43000
O695_R     H41_R      1.02108
O696_R     C322_C1    1.43000
O696_R     H42_R      1.02108
O697_Q     C379_Q     1.22521
O698_Q     C380_Q     1.22521
O699_Q     C381_Q     1.22521
O700_Q     C382_Q     1.22521
O701_Q     C383_Q     1.22521
O702_Q     C384_Q     1.22521
O703_R     C357_C1    1.43000
O703_R     H67_R      1.02108
O704_R     C358_C1    1.43000
O704_R     H68_R      1.02108
O705_R     C345_C1    1.43000
O705_R     H69_R      1.02108
O706_R     C346_C1    1.43000
O706_R     H70_R      1.02108
O707_R     H71_R      1.02108
O707_R     C369_C1    1.43000
O708_R     H72_R      1.02108
O708_R     C370_C1    1.43000
O709_Q     C427_Q     1.22521
O710_Q     C428_Q     1.22521
O711_Q     C429_Q     1.22521
O712_Q     C430_Q     1.22521
O713_Q     C431_Q     1.22521
O714_Q     C432_Q     1.22521
O715_R     C405_C1    1.43000
O715_R     H97_R      1.02108
O716_R     C406_C1    1.43000
O716_R     H98_R      1.02108
O717_R     C393_C1    1.43000
O717_R     H99_R      1.02108
O718_R     C394_C1    1.43000
O718_R     H100_R     1.02108
O719_R     C417_C1    1.43000
O719_R     H101_R     1.02108
O720_R     C418_C1    1.43000
O720_R     H102_R     1.02108
