data_T3_TPTZ_CHO_OH_H_H_H-L2_BPNY_NH2_H_H_H_H-FESa-AA

_audit_creation_date     2025-25-02
_audit_creation_method   pyCOFBuilder
_audit_author_name       'root'

_chemical_name_common                  'T3_TPTZ_CHO_OH_H_H_H-L2_BPNY_NH2_H_H_H_H-FESa-AA'
_cell_length_a                           89.061036
_cell_length_b                           89.061036
_cell_length_c                            7.200000
_cell_angle_alpha                        90.00
_cell_angle_beta                         90.00
_cell_angle_gamma                        90.00
_space_group_name_H-M_alt               'P 1'
_space_group_IT_number                  1

loop_
_symmetry_equiv_pos_as_xyz
   'x, y, z'

loop_
   _atom_site_label
   _atom_site_type_symbol
   _atom_site_fract_x
   _atom_site_fract_y
   _atom_site_fract_z
H1_H1_Q            H     0.999635161     0.911177939     0.250000000
H2_H2_Q            H     0.999635161     0.911177939     0.750000000
H3_H3_Q            H     0.077104581     0.044095071     0.250000000
H4_H4_Q            H     0.077104581     0.044095071     0.750000000
H5_H5_Q            H     0.923260258     0.044726990     0.250000000
H6_H6_Q            H     0.923260258     0.044726990     0.750000000
H7_H7_R            H     0.958227495     0.966084590     0.250000000
H8_H8_R            H     0.958227495     0.966084590     0.750000000
H9_H9_R            H     0.050257859     0.980781655     0.250000000
H10_H10_R          H     0.050257859     0.980781655     0.750000000
H11_H11_R          H     0.991514646     0.053133756     0.250000000
H12_H12_R          H     0.991514646     0.053133756     0.750000000
H13_H13_R          H     0.968362784     0.940534804     0.250000000
H14_H14_R          H     0.968362784     0.940534804     0.750000000
H15_H15_R          H     0.067316978     0.002333965     0.250000000
H16_H16_R          H     0.067316978     0.002333965     0.750000000
H17_H17_R          H     0.964320238     0.057131231     0.250000000
H18_H18_R          H     0.964320238     0.057131231     0.750000000
H19_H19_R          H     0.935378804     0.019035933     0.250000000
H20_H20_R          H     0.935378804     0.019035933     0.750000000
H21_H21_R          H     0.015824997     0.934518436     0.250000000
H22_H22_R          H     0.015824997     0.934518436     0.750000000
H23_H23_R          H     0.048796199     0.046445631     0.250000000
H24_H24_R          H     0.048796199     0.046445631     0.750000000
H25_H25_R          H     0.957639682     0.001919780     0.250000000
H26_H26_R          H     0.957639682     0.001919780     0.750000000
H27_H27_R          H     0.019517580     0.962354999     0.250000000
H28_H28_R          H     0.019517580     0.962354999     0.750000000
H29_H29_R          H     0.022842737     0.035725221     0.250000000
H30_H30_R          H     0.022842737     0.035725221     0.750000000
H31_H31_Q          H     0.000364839     0.588822061     0.250000000
H32_H32_Q          H     0.000364839     0.588822061     0.750000000
H33_H33_Q          H     0.922895419     0.455904929     0.250000000
H34_H34_Q          H     0.922895419     0.455904929     0.750000000
H35_H35_Q          H     0.076739742     0.455273010     0.250000000
H36_H36_Q          H     0.076739742     0.455273010     0.750000000
H37_H37_R          H     0.041772505     0.533915410     0.250000000
H38_H38_R          H     0.041772505     0.533915410     0.750000000
H39_H39_R          H     0.949742141     0.519218345     0.250000000
H40_H40_R          H     0.949742141     0.519218345     0.750000000
H41_H41_R          H     0.008485354     0.446866244     0.250000000
H42_H42_R          H     0.008485354     0.446866244     0.750000000
H43_H43_R          H     0.031637216     0.559465196     0.250000000
H44_H44_R          H     0.031637216     0.559465196     0.750000000
H45_H45_R          H     0.932683022     0.497666035     0.250000000
H46_H46_R          H     0.932683022     0.497666035     0.750000000
H47_H47_R          H     0.035679762     0.442868769     0.250000000
H48_H48_R          H     0.035679762     0.442868769     0.750000000
H49_H49_R          H     0.064621196     0.480964067     0.250000000
H50_H50_R          H     0.064621196     0.480964067     0.750000000
H51_H51_R          H     0.984175003     0.565481564     0.250000000
H52_H52_R          H     0.984175003     0.565481564     0.750000000
H53_H53_R          H     0.951203801     0.453554369     0.250000000
H54_H54_R          H     0.951203801     0.453554369     0.750000000
H55_H55_R          H     0.042360318     0.498080220     0.250000000
H56_H56_R          H     0.042360318     0.498080220     0.750000000
H57_H57_R          H     0.980482420     0.537645001     0.250000000
H58_H58_R          H     0.980482420     0.537645001     0.750000000
H59_H59_R          H     0.977157263     0.464274779     0.250000000
H60_H60_R          H     0.977157263     0.464274779     0.750000000
H61_H61_Q          H     0.338822061     0.249635161     0.250000000
H62_H62_Q          H     0.338822061     0.249635161     0.750000000
H63_H63_Q          H     0.205904929     0.327104581     0.250000000
H64_H64_Q          H     0.205904929     0.327104581     0.750000000
H65_H65_Q          H     0.205273010     0.173260258     0.250000000
H66_H66_Q          H     0.205273010     0.173260258     0.750000000
H67_H67_R          H     0.283915410     0.208227495     0.250000000
H68_H68_R          H     0.283915410     0.208227495     0.750000000
H69_H69_R          H     0.269218345     0.300257859     0.250000000
H70_H70_R          H     0.269218345     0.300257859     0.750000000
H71_H71_R          H     0.196866244     0.241514646     0.250000000
H72_H72_R          H     0.196866244     0.241514646     0.750000000
H73_H73_R          H     0.309465196     0.218362784     0.250000000
H74_H74_R          H     0.309465196     0.218362784     0.750000000
H75_H75_R          H     0.247666035     0.317316978     0.250000000
H76_H76_R          H     0.247666035     0.317316978     0.750000000
H77_H77_R          H     0.192868769     0.214320238     0.250000000
H78_H78_R          H     0.192868769     0.214320238     0.750000000
H79_H79_R          H     0.230964067     0.185378804     0.250000000
H80_H80_R          H     0.230964067     0.185378804     0.750000000
H81_H81_R          H     0.315481564     0.265824997     0.250000000
H82_H82_R          H     0.315481564     0.265824997     0.750000000
H83_H83_R          H     0.203554369     0.298796199     0.250000000
H84_H84_R          H     0.203554369     0.298796199     0.750000000
H85_H85_R          H     0.248080220     0.207639682     0.250000000
H86_H86_R          H     0.248080220     0.207639682     0.750000000
H87_H87_R          H     0.287645001     0.269517580     0.250000000
H88_H88_R          H     0.287645001     0.269517580     0.750000000
H89_H89_R          H     0.214274779     0.272842737     0.250000000
H90_H90_R          H     0.214274779     0.272842737     0.750000000
H91_H91_Q          H     0.661177939     0.250364839     0.250000000
H92_H92_Q          H     0.661177939     0.250364839     0.750000000
H93_H93_Q          H     0.794095071     0.172895419     0.250000000
H94_H94_Q          H     0.794095071     0.172895419     0.750000000
H95_H95_Q          H     0.794726990     0.326739742     0.250000000
H96_H96_Q          H     0.794726990     0.326739742     0.750000000
H97_H97_R          H     0.716084590     0.291772505     0.250000000
H98_H98_R          H     0.716084590     0.291772505     0.750000000
H99_H99_R          H     0.730781655     0.199742141     0.250000000
H100_H100_R        H     0.730781655     0.199742141     0.750000000
H101_H101_R        H     0.803133756     0.258485354     0.250000000
H102_H102_R        H     0.803133756     0.258485354     0.750000000
H103_H103_R        H     0.690534804     0.281637216     0.250000000
H104_H104_R        H     0.690534804     0.281637216     0.750000000
H105_H105_R        H     0.752333965     0.182683022     0.250000000
H106_H106_R        H     0.752333965     0.182683022     0.750000000
H107_H107_R        H     0.807131231     0.285679762     0.250000000
H108_H108_R        H     0.807131231     0.285679762     0.750000000
H109_H109_R        H     0.769035933     0.314621196     0.250000000
H110_H110_R        H     0.769035933     0.314621196     0.750000000
H111_H111_R        H     0.684518436     0.234175003     0.250000000
H112_H112_R        H     0.684518436     0.234175003     0.750000000
H113_H113_R        H     0.796445631     0.201203801     0.250000000
H114_H114_R        H     0.796445631     0.201203801     0.750000000
H115_H115_R        H     0.751919780     0.292360318     0.250000000
H116_H116_R        H     0.751919780     0.292360318     0.750000000
H117_H117_R        H     0.712354999     0.230482420     0.250000000
H118_H118_R        H     0.712354999     0.230482420     0.750000000
H119_H119_R        H     0.785725221     0.227157263     0.250000000
H120_H120_R        H     0.785725221     0.227157263     0.750000000
H121_H121_R        H     0.115058812     0.080762014     0.250000000
H122_H122_R        H     0.115058812     0.080762014     0.750000000
H123_H123_R        H     0.134941188     0.169237986     0.250000000
H124_H124_R        H     0.134941188     0.169237986     0.750000000
H125_H125_R        H     0.169234927     0.134944574     0.250000000
H126_H126_R        H     0.169234927     0.134944574     0.750000000
H127_H127_R        H     0.080765073     0.115055426     0.250000000
H128_H128_R        H     0.080765073     0.115055426     0.750000000
H129_H129_R        H     0.115146531     0.149439628     0.250000000
H130_H130_R        H     0.115146531     0.149439628     0.750000000
H131_H131_R        H     0.134853469     0.100560372     0.250000000
H132_H132_R        H     0.134853469     0.100560372     0.750000000
H133_H133_R        H     0.149446041     0.115144829     0.250000000
H134_H134_R        H     0.149446041     0.115144829     0.750000000
H135_H135_R        H     0.100553959     0.134855171     0.250000000
H136_H136_R        H     0.100553959     0.134855171     0.750000000
H137_H137_R        H     0.169237986     0.365058812     0.250000000
H138_H138_R        H     0.169237986     0.365058812     0.750000000
H139_H139_R        H     0.080762014     0.384941188     0.250000000
H140_H140_R        H     0.080762014     0.384941188     0.750000000
H141_H141_R        H     0.115055426     0.419234927     0.250000000
H142_H142_R        H     0.115055426     0.419234927     0.750000000
H143_H143_R        H     0.134944574     0.330765073     0.250000000
H144_H144_R        H     0.134944574     0.330765073     0.750000000
H145_H145_R        H     0.100560372     0.365146531     0.250000000
H146_H146_R        H     0.100560372     0.365146531     0.750000000
H147_H147_R        H     0.149439628     0.384853469     0.250000000
H148_H148_R        H     0.149439628     0.384853469     0.750000000
H149_H149_R        H     0.134855171     0.399446041     0.250000000
H150_H150_R        H     0.134855171     0.399446041     0.750000000
H151_H151_R        H     0.115144829     0.350553959     0.250000000
H152_H152_R        H     0.115144829     0.350553959     0.750000000
H153_H153_R        H     0.024251499     0.711689538     0.250000000
H154_H154_R        H     0.024251499     0.711689538     0.750000000
H155_H155_R        H     0.975748501     0.788310462     0.250000000
H156_H156_R        H     0.975748501     0.788310462     0.750000000
H157_H157_R        H     0.024246941     0.788310693     0.250000000
H158_H158_R        H     0.024246941     0.788310693     0.750000000
H159_H159_R        H     0.975753059     0.711689307     0.250000000
H160_H160_R        H     0.975753059     0.711689307     0.750000000
H161_H161_R        H     0.975751118     0.760313972     0.250000000
H162_H162_R        H     0.975751118     0.760313972     0.750000000
H163_H163_R        H     0.024248882     0.739686028     0.250000000
H164_H164_R        H     0.024248882     0.739686028     0.750000000
H165_H165_R        H     0.024254620     0.760317304     0.250000000
H166_H166_R        H     0.024254620     0.760317304     0.750000000
H167_H167_R        H     0.975745380     0.739682696     0.250000000
H168_H168_R        H     0.975745380     0.739682696     0.750000000
H169_H169_R        H     0.461689538     0.225748501     0.250000000
H170_H170_R        H     0.461689538     0.225748501     0.750000000
H171_H171_R        H     0.538310462     0.274251499     0.250000000
H172_H172_R        H     0.538310462     0.274251499     0.750000000
H173_H173_R        H     0.538310693     0.225753059     0.250000000
H174_H174_R        H     0.538310693     0.225753059     0.750000000
H175_H175_R        H     0.461689307     0.274246941     0.250000000
H176_H176_R        H     0.461689307     0.274246941     0.750000000
H177_H177_R        H     0.510313972     0.274248882     0.250000000
H178_H178_R        H     0.510313972     0.274248882     0.750000000
H179_H179_R        H     0.489686028     0.225751118     0.250000000
H180_H180_R        H     0.489686028     0.225751118     0.750000000
H181_H181_R        H     0.510317304     0.225745380     0.250000000
H182_H182_R        H     0.510317304     0.225745380     0.750000000
H183_H183_R        H     0.489682696     0.274254620     0.250000000
H184_H184_R        H     0.489682696     0.274254620     0.750000000
H185_H185_R        H     0.919237986     0.115058812     0.250000000
H186_H186_R        H     0.919237986     0.115058812     0.750000000
H187_H187_R        H     0.830762014     0.134941188     0.250000000
H188_H188_R        H     0.830762014     0.134941188     0.750000000
H189_H189_R        H     0.865055426     0.169234927     0.250000000
H190_H190_R        H     0.865055426     0.169234927     0.750000000
H191_H191_R        H     0.884944574     0.080765073     0.250000000
H192_H192_R        H     0.884944574     0.080765073     0.750000000
H193_H193_R        H     0.850560372     0.115146531     0.250000000
H194_H194_R        H     0.850560372     0.115146531     0.750000000
H195_H195_R        H     0.899439628     0.134853469     0.250000000
H196_H196_R        H     0.899439628     0.134853469     0.750000000
H197_H197_R        H     0.884855171     0.149446041     0.250000000
H198_H198_R        H     0.884855171     0.149446041     0.750000000
H199_H199_R        H     0.865144829     0.100553959     0.250000000
H200_H200_R        H     0.865144829     0.100553959     0.750000000
H201_H201_R        H     0.865058812     0.330762014     0.250000000
H202_H202_R        H     0.865058812     0.330762014     0.750000000
H203_H203_R        H     0.884941188     0.419237986     0.250000000
H204_H204_R        H     0.884941188     0.419237986     0.750000000
H205_H205_R        H     0.919234927     0.384944574     0.250000000
H206_H206_R        H     0.919234927     0.384944574     0.750000000
H207_H207_R        H     0.830765073     0.365055426     0.250000000
H208_H208_R        H     0.830765073     0.365055426     0.750000000
H209_H209_R        H     0.865146531     0.399439628     0.250000000
H210_H210_R        H     0.865146531     0.399439628     0.750000000
H211_H211_R        H     0.884853469     0.350560372     0.250000000
H212_H212_R        H     0.884853469     0.350560372     0.750000000
H213_H213_R        H     0.899446041     0.365144829     0.250000000
H214_H214_R        H     0.899446041     0.365144829     0.750000000
H215_H215_R        H     0.850553959     0.384855171     0.250000000
H216_H216_R        H     0.850553959     0.384855171     0.750000000
C217_C217_C1       C     0.998026712     0.984414493     0.250000000
C218_C218_C1       C     0.998026712     0.984414493     0.750000000
C219_C219_C1       C     0.014484088     0.006083836     0.250000000
C220_C220_C1       C     0.014484088     0.006083836     0.750000000
C221_C221_C1       C     0.987489199     0.009501671     0.250000000
C222_C222_C1       C     0.987489199     0.009501671     0.750000000
C223_C223_C1       C     0.030469802     0.012802144     0.250000000
C224_C224_C1       C     0.030469802     0.012802144     0.750000000
C225_C225_C1       C     0.042977876     0.003553856     0.250000000
C226_C226_C1       C     0.042977876     0.003553856     0.750000000
C227_C227_C1       C     0.032628252     0.028203849     0.250000000
C228_C228_C1       C     0.032628252     0.028203849     0.750000000
C229_C229_C1       C     0.057444510     0.009740835     0.250000000
C230_C230_C1       C     0.057444510     0.009740835     0.750000000
C231_C231_C1       C     0.047168613     0.034211321     0.250000000
C232_C232_C1       C     0.047168613     0.034211321     0.750000000
C233_C233_C1       C     0.059487416     0.024990355     0.250000000
C234_C234_C1       C     0.059487416     0.024990355     0.750000000
C235_C235_C1       C     0.995852080     0.967211305     0.250000000
C236_C236_C1       C     0.995852080     0.967211305     0.750000000
C237_C237_C1       C     0.981588792     0.961003140     0.250000000
C238_C238_C1       C     0.981588792     0.961003140     0.750000000
C239_C239_C1       C     0.008111124     0.957641180     0.250000000
C240_C240_C1       C     0.008111124     0.957641180     0.750000000
C241_C241_C1       C     0.979713556     0.945381178     0.250000000
C242_C242_C1       C     0.979713556     0.945381178     0.750000000
C243_C243_C1       C     0.006043567     0.942045122     0.250000000
C244_C244_C1       C     0.006043567     0.942045122     0.750000000
C245_C245_C1       C     0.991898574     0.935987209     0.250000000
C246_C246_C1       C     0.991898574     0.935987209     0.750000000
C247_C247_C1       C     0.973678117     0.019986551     0.250000000
C248_C248_C1       C     0.973678117     0.019986551     0.750000000
C249_C249_C1       C     0.975433332     0.035443004     0.250000000
C250_C250_C1       C     0.975433332     0.035443004     0.750000000
C251_C251_C1       C     0.959260624     0.014154971     0.250000000
C252_C252_C1       C     0.959260624     0.014154971     0.750000000
C253_C253_C1       C     0.962841934     0.044877987     0.250000000
C254_C254_C1       C     0.962841934     0.044877987     0.750000000
C255_C255_C1       C     0.946787820     0.023743557     0.250000000
C256_C256_C1       C     0.946787820     0.023743557     0.750000000
C257_C257_C1       C     0.948614010     0.039022436     0.250000000
C258_C258_C1       C     0.948614010     0.039022436     0.750000000
C259_C259_Q        C     0.989707785     0.918721854     0.250000000
C260_C260_Q        C     0.989707785     0.918721854     0.750000000
C261_C261_Q        C     0.075535047     0.031725754     0.250000000
C262_C262_Q        C     0.075535047     0.031725754     0.750000000
C263_C263_Q        C     0.934757168     0.049552393     0.250000000
C264_C264_Q        C     0.934757168     0.049552393     0.750000000
C265_C265_C1       C     0.001973288     0.515585507     0.250000000
C266_C266_C1       C     0.001973288     0.515585507     0.750000000
C267_C267_C1       C     0.985515912     0.493916164     0.250000000
C268_C268_C1       C     0.985515912     0.493916164     0.750000000
C269_C269_C1       C     0.012510801     0.490498329     0.250000000
C270_C270_C1       C     0.012510801     0.490498329     0.750000000
C271_C271_C1       C     0.969530198     0.487197856     0.250000000
C272_C272_C1       C     0.969530198     0.487197856     0.750000000
C273_C273_C1       C     0.957022124     0.496446144     0.250000000
C274_C274_C1       C     0.957022124     0.496446144     0.750000000
C275_C275_C1       C     0.967371748     0.471796151     0.250000000
C276_C276_C1       C     0.967371748     0.471796151     0.750000000
C277_C277_C1       C     0.942555490     0.490259165     0.250000000
C278_C278_C1       C     0.942555490     0.490259165     0.750000000
C279_C279_C1       C     0.952831387     0.465788679     0.250000000
C280_C280_C1       C     0.952831387     0.465788679     0.750000000
C281_C281_C1       C     0.940512584     0.475009645     0.250000000
C282_C282_C1       C     0.940512584     0.475009645     0.750000000
C283_C283_C1       C     0.004147920     0.532788695     0.250000000
C284_C284_C1       C     0.004147920     0.532788695     0.750000000
C285_C285_C1       C     0.018411208     0.538996860     0.250000000
C286_C286_C1       C     0.018411208     0.538996860     0.750000000
C287_C287_C1       C     0.991888876     0.542358820     0.250000000
C288_C288_C1       C     0.991888876     0.542358820     0.750000000
C289_C289_C1       C     0.020286444     0.554618822     0.250000000
C290_C290_C1       C     0.020286444     0.554618822     0.750000000
C291_C291_C1       C     0.993956433     0.557954878     0.250000000
C292_C292_C1       C     0.993956433     0.557954878     0.750000000
C293_C293_C1       C     0.008101426     0.564012791     0.250000000
C294_C294_C1       C     0.008101426     0.564012791     0.750000000
C295_C295_C1       C     0.026321883     0.480013449     0.250000000
C296_C296_C1       C     0.026321883     0.480013449     0.750000000
C297_C297_C1       C     0.024566668     0.464556996     0.250000000
C298_C298_C1       C     0.024566668     0.464556996     0.750000000
C299_C299_C1       C     0.040739376     0.485845029     0.250000000
C300_C300_C1       C     0.040739376     0.485845029     0.750000000
C301_C301_C1       C     0.037158066     0.455122013     0.250000000
C302_C302_C1       C     0.037158066     0.455122013     0.750000000
C303_C303_C1       C     0.053212180     0.476256443     0.250000000
C304_C304_C1       C     0.053212180     0.476256443     0.750000000
C305_C305_C1       C     0.051385990     0.460977564     0.250000000
C306_C306_C1       C     0.051385990     0.460977564     0.750000000
C307_C307_Q        C     0.010292215     0.581278146     0.250000000
C308_C308_Q        C     0.010292215     0.581278146     0.750000000
C309_C309_Q        C     0.924464953     0.468274246     0.250000000
C310_C310_Q        C     0.924464953     0.468274246     0.750000000
C311_C311_Q        C     0.065242832     0.450447607     0.250000000
C312_C312_Q        C     0.065242832     0.450447607     0.750000000
C313_C313_C1       C     0.265585507     0.248026712     0.250000000
C314_C314_C1       C     0.265585507     0.248026712     0.750000000
C315_C315_C1       C     0.243916164     0.264484088     0.250000000
C316_C316_C1       C     0.243916164     0.264484088     0.750000000
C317_C317_C1       C     0.240498329     0.237489199     0.250000000
C318_C318_C1       C     0.240498329     0.237489199     0.750000000
C319_C319_C1       C     0.237197856     0.280469802     0.250000000
C320_C320_C1       C     0.237197856     0.280469802     0.750000000
C321_C321_C1       C     0.246446144     0.292977876     0.250000000
C322_C322_C1       C     0.246446144     0.292977876     0.750000000
C323_C323_C1       C     0.221796151     0.282628252     0.250000000
C324_C324_C1       C     0.221796151     0.282628252     0.750000000
C325_C325_C1       C     0.240259165     0.307444510     0.250000000
C326_C326_C1       C     0.240259165     0.307444510     0.750000000
C327_C327_C1       C     0.215788679     0.297168613     0.250000000
C328_C328_C1       C     0.215788679     0.297168613     0.750000000
C329_C329_C1       C     0.225009645     0.309487416     0.250000000
C330_C330_C1       C     0.225009645     0.309487416     0.750000000
C331_C331_C1       C     0.282788695     0.245852080     0.250000000
C332_C332_C1       C     0.282788695     0.245852080     0.750000000
C333_C333_C1       C     0.288996860     0.231588792     0.250000000
C334_C334_C1       C     0.288996860     0.231588792     0.750000000
C335_C335_C1       C     0.292358820     0.258111124     0.250000000
C336_C336_C1       C     0.292358820     0.258111124     0.750000000
C337_C337_C1       C     0.304618822     0.229713556     0.250000000
C338_C338_C1       C     0.304618822     0.229713556     0.750000000
C339_C339_C1       C     0.307954878     0.256043567     0.250000000
C340_C340_C1       C     0.307954878     0.256043567     0.750000000
C341_C341_C1       C     0.314012791     0.241898574     0.250000000
C342_C342_C1       C     0.314012791     0.241898574     0.750000000
C343_C343_C1       C     0.230013449     0.223678117     0.250000000
C344_C344_C1       C     0.230013449     0.223678117     0.750000000
C345_C345_C1       C     0.214556996     0.225433332     0.250000000
C346_C346_C1       C     0.214556996     0.225433332     0.750000000
C347_C347_C1       C     0.235845029     0.209260624     0.250000000
C348_C348_C1       C     0.235845029     0.209260624     0.750000000
C349_C349_C1       C     0.205122013     0.212841934     0.250000000
C350_C350_C1       C     0.205122013     0.212841934     0.750000000
C351_C351_C1       C     0.226256443     0.196787820     0.250000000
C352_C352_C1       C     0.226256443     0.196787820     0.750000000
C353_C353_C1       C     0.210977564     0.198614010     0.250000000
C354_C354_C1       C     0.210977564     0.198614010     0.750000000
C355_C355_Q        C     0.331278146     0.239707785     0.250000000
C356_C356_Q        C     0.331278146     0.239707785     0.750000000
C357_C357_Q        C     0.218274246     0.325535047     0.250000000
C358_C358_Q        C     0.218274246     0.325535047     0.750000000
C359_C359_Q        C     0.200447607     0.184757168     0.250000000
C360_C360_Q        C     0.200447607     0.184757168     0.750000000
C361_C361_C1       C     0.734414493     0.251973288     0.250000000
C362_C362_C1       C     0.734414493     0.251973288     0.750000000
C363_C363_C1       C     0.756083836     0.235515912     0.250000000
C364_C364_C1       C     0.756083836     0.235515912     0.750000000
C365_C365_C1       C     0.759501671     0.262510801     0.250000000
C366_C366_C1       C     0.759501671     0.262510801     0.750000000
C367_C367_C1       C     0.762802144     0.219530198     0.250000000
C368_C368_C1       C     0.762802144     0.219530198     0.750000000
C369_C369_C1       C     0.753553856     0.207022124     0.250000000
C370_C370_C1       C     0.753553856     0.207022124     0.750000000
C371_C371_C1       C     0.778203849     0.217371748     0.250000000
C372_C372_C1       C     0.778203849     0.217371748     0.750000000
C373_C373_C1       C     0.759740835     0.192555490     0.250000000
C374_C374_C1       C     0.759740835     0.192555490     0.750000000
C375_C375_C1       C     0.784211321     0.202831387     0.250000000
C376_C376_C1       C     0.784211321     0.202831387     0.750000000
C377_C377_C1       C     0.774990355     0.190512584     0.250000000
C378_C378_C1       C     0.774990355     0.190512584     0.750000000
C379_C379_C1       C     0.717211305     0.254147920     0.250000000
C380_C380_C1       C     0.717211305     0.254147920     0.750000000
C381_C381_C1       C     0.711003140     0.268411208     0.250000000
C382_C382_C1       C     0.711003140     0.268411208     0.750000000
C383_C383_C1       C     0.707641180     0.241888876     0.250000000
C384_C384_C1       C     0.707641180     0.241888876     0.750000000
C385_C385_C1       C     0.695381178     0.270286444     0.250000000
C386_C386_C1       C     0.695381178     0.270286444     0.750000000
C387_C387_C1       C     0.692045122     0.243956433     0.250000000
C388_C388_C1       C     0.692045122     0.243956433     0.750000000
C389_C389_C1       C     0.685987209     0.258101426     0.250000000
C390_C390_C1       C     0.685987209     0.258101426     0.750000000
C391_C391_C1       C     0.769986551     0.276321883     0.250000000
C392_C392_C1       C     0.769986551     0.276321883     0.750000000
C393_C393_C1       C     0.785443004     0.274566668     0.250000000
C394_C394_C1       C     0.785443004     0.274566668     0.750000000
C395_C395_C1       C     0.764154971     0.290739376     0.250000000
C396_C396_C1       C     0.764154971     0.290739376     0.750000000
C397_C397_C1       C     0.794877987     0.287158066     0.250000000
C398_C398_C1       C     0.794877987     0.287158066     0.750000000
C399_C399_C1       C     0.773743557     0.303212180     0.250000000
C400_C400_C1       C     0.773743557     0.303212180     0.750000000
C401_C401_C1       C     0.789022436     0.301385990     0.250000000
C402_C402_C1       C     0.789022436     0.301385990     0.750000000
C403_C403_Q        C     0.668721854     0.260292215     0.250000000
C404_C404_Q        C     0.668721854     0.260292215     0.750000000
C405_C405_Q        C     0.781725754     0.174464953     0.250000000
C406_C406_Q        C     0.781725754     0.174464953     0.750000000
C407_C407_Q        C     0.799552393     0.315242832     0.250000000
C408_C408_Q        C     0.799552393     0.315242832     0.750000000
C409_C409_C2       C     0.157313612     0.138139820     0.250000000
C410_C410_C2       C     0.157313612     0.138139820     0.750000000
C411_C411_C2       C     0.146248170     0.127065440     0.250000000
C412_C412_C2       C     0.146248170     0.127065440     0.750000000
C413_C413_C2       C     0.131114338     0.131120058     0.250000000
C414_C414_C2       C     0.131114338     0.131120058     0.750000000
C415_C415_C2       C     0.127067133     0.146241722     0.250000000
C416_C416_C2       C     0.127067133     0.146241722     0.750000000
C417_C417_C2       C     0.138142967     0.157318423     0.250000000
C418_C418_C2       C     0.138142967     0.157318423     0.750000000
C419_C419_C2       C     0.153261195     0.153267924     0.250000000
C420_C420_C2       C     0.153261195     0.153267924     0.750000000
C421_C421_C2       C     0.118885662     0.118879942     0.250000000
C422_C422_C2       C     0.118885662     0.118879942     0.750000000
C423_C423_C2       C     0.103751830     0.122934560     0.250000000
C424_C424_C2       C     0.103751830     0.122934560     0.750000000
C425_C425_C2       C     0.122932867     0.103758278     0.250000000
C426_C426_C2       C     0.122932867     0.103758278     0.750000000
C427_C427_C2       C     0.092686388     0.111860180     0.250000000
C428_C428_C2       C     0.092686388     0.111860180     0.750000000
C429_C429_C2       C     0.111857033     0.092681577     0.250000000
C430_C430_C2       C     0.111857033     0.092681577     0.750000000
C431_C431_C2       C     0.096738805     0.096732076     0.250000000
C432_C432_C2       C     0.096738805     0.096732076     0.750000000
C433_C433_C2       C     0.111860180     0.407313612     0.250000000
C434_C434_C2       C     0.111860180     0.407313612     0.750000000
C435_C435_C2       C     0.122934560     0.396248170     0.250000000
C436_C436_C2       C     0.122934560     0.396248170     0.750000000
C437_C437_C2       C     0.118879942     0.381114338     0.250000000
C438_C438_C2       C     0.118879942     0.381114338     0.750000000
C439_C439_C2       C     0.103758278     0.377067133     0.250000000
C440_C440_C2       C     0.103758278     0.377067133     0.750000000
C441_C441_C2       C     0.092681577     0.388142967     0.250000000
C442_C442_C2       C     0.092681577     0.388142967     0.750000000
C443_C443_C2       C     0.096732076     0.403261195     0.250000000
C444_C444_C2       C     0.096732076     0.403261195     0.750000000
C445_C445_C2       C     0.131120058     0.368885662     0.250000000
C446_C446_C2       C     0.131120058     0.368885662     0.750000000
C447_C447_C2       C     0.127065440     0.353751830     0.250000000
C448_C448_C2       C     0.127065440     0.353751830     0.750000000
C449_C449_C2       C     0.146241722     0.372932867     0.250000000
C450_C450_C2       C     0.146241722     0.372932867     0.750000000
C451_C451_C2       C     0.138139820     0.342686388     0.250000000
C452_C452_C2       C     0.138139820     0.342686388     0.750000000
C453_C453_C2       C     0.157318423     0.361857033     0.250000000
C454_C454_C2       C     0.157318423     0.361857033     0.750000000
C455_C455_C2       C     0.153267924     0.346738805     0.250000000
C456_C456_C2       C     0.153267924     0.346738805     0.750000000
C457_C457_C2       C     0.013557918     0.782140430     0.250000000
C458_C458_C2       C     0.013557918     0.782140430     0.750000000
C459_C459_C2       C     0.013564239     0.766485212     0.250000000
C460_C460_C2       C     0.013564239     0.766485212     0.750000000
C461_C461_C2       C     0.999995956     0.758651024     0.250000000
C462_C462_C2       C     0.999995956     0.758651024     0.750000000
C463_C463_C2       C     0.986441518     0.766481849     0.250000000
C464_C464_C2       C     0.986441518     0.766481849     0.750000000
C465_C465_C2       C     0.986440905     0.782146057     0.250000000
C466_C466_C2       C     0.986440905     0.782146057     0.750000000
C467_C467_C2       C     0.999995242     0.789972123     0.250000000
C468_C468_C2       C     0.999995242     0.789972123     0.750000000
C469_C469_C2       C     0.000004044     0.741348976     0.250000000
C470_C470_C2       C     0.000004044     0.741348976     0.750000000
C471_C471_C2       C     0.986435761     0.733514788     0.250000000
C472_C472_C2       C     0.986435761     0.733514788     0.750000000
C473_C473_C2       C     0.013558482     0.733518151     0.250000000
C474_C474_C2       C     0.013558482     0.733518151     0.750000000
C475_C475_C2       C     0.986442082     0.717859570     0.250000000
C476_C476_C2       C     0.986442082     0.717859570     0.750000000
C477_C477_C2       C     0.013559095     0.717853943     0.250000000
C478_C478_C2       C     0.013559095     0.717853943     0.750000000
C479_C479_C2       C     0.000004758     0.710027877     0.250000000
C480_C480_C2       C     0.000004758     0.710027877     0.750000000
C481_C481_C2       C     0.532140430     0.236442082     0.250000000
C482_C482_C2       C     0.532140430     0.236442082     0.750000000
C483_C483_C2       C     0.516485212     0.236435761     0.250000000
C484_C484_C2       C     0.516485212     0.236435761     0.750000000
C485_C485_C2       C     0.508651024     0.250004044     0.250000000
C486_C486_C2       C     0.508651024     0.250004044     0.750000000
C487_C487_C2       C     0.516481849     0.263558482     0.250000000
C488_C488_C2       C     0.516481849     0.263558482     0.750000000
C489_C489_C2       C     0.532146057     0.263559095     0.250000000
C490_C490_C2       C     0.532146057     0.263559095     0.750000000
C491_C491_C2       C     0.539972123     0.250004758     0.250000000
C492_C492_C2       C     0.539972123     0.250004758     0.750000000
C493_C493_C2       C     0.491348976     0.249995956     0.250000000
C494_C494_C2       C     0.491348976     0.249995956     0.750000000
C495_C495_C2       C     0.483514788     0.263564239     0.250000000
C496_C496_C2       C     0.483514788     0.263564239     0.750000000
C497_C497_C2       C     0.483518151     0.236441518     0.250000000
C498_C498_C2       C     0.483518151     0.236441518     0.750000000
C499_C499_C2       C     0.467859570     0.263557918     0.250000000
C500_C500_C2       C     0.467859570     0.263557918     0.750000000
C501_C501_C2       C     0.467853943     0.236440905     0.250000000
C502_C502_C2       C     0.467853943     0.236440905     0.750000000
C503_C503_C2       C     0.460027877     0.249995242     0.250000000
C504_C504_C2       C     0.460027877     0.249995242     0.750000000
C505_C505_C2       C     0.861860180     0.157313612     0.250000000
C506_C506_C2       C     0.861860180     0.157313612     0.750000000
C507_C507_C2       C     0.872934560     0.146248170     0.250000000
C508_C508_C2       C     0.872934560     0.146248170     0.750000000
C509_C509_C2       C     0.868879942     0.131114338     0.250000000
C510_C510_C2       C     0.868879942     0.131114338     0.750000000
C511_C511_C2       C     0.853758278     0.127067133     0.250000000
C512_C512_C2       C     0.853758278     0.127067133     0.750000000
C513_C513_C2       C     0.842681577     0.138142967     0.250000000
C514_C514_C2       C     0.842681577     0.138142967     0.750000000
C515_C515_C2       C     0.846732076     0.153261195     0.250000000
C516_C516_C2       C     0.846732076     0.153261195     0.750000000
C517_C517_C2       C     0.881120058     0.118885662     0.250000000
C518_C518_C2       C     0.881120058     0.118885662     0.750000000
C519_C519_C2       C     0.877065440     0.103751830     0.250000000
C520_C520_C2       C     0.877065440     0.103751830     0.750000000
C521_C521_C2       C     0.896241722     0.122932867     0.250000000
C522_C522_C2       C     0.896241722     0.122932867     0.750000000
C523_C523_C2       C     0.888139820     0.092686388     0.250000000
C524_C524_C2       C     0.888139820     0.092686388     0.750000000
C525_C525_C2       C     0.907318423     0.111857033     0.250000000
C526_C526_C2       C     0.907318423     0.111857033     0.750000000
C527_C527_C2       C     0.903267924     0.096738805     0.250000000
C528_C528_C2       C     0.903267924     0.096738805     0.750000000
C529_C529_C2       C     0.907313612     0.388139820     0.250000000
C530_C530_C2       C     0.907313612     0.388139820     0.750000000
C531_C531_C2       C     0.896248170     0.377065440     0.250000000
C532_C532_C2       C     0.896248170     0.377065440     0.750000000
C533_C533_C2       C     0.881114338     0.381120058     0.250000000
C534_C534_C2       C     0.881114338     0.381120058     0.750000000
C535_C535_C2       C     0.877067133     0.396241722     0.250000000
C536_C536_C2       C     0.877067133     0.396241722     0.750000000
C537_C537_C2       C     0.888142967     0.407318423     0.250000000
C538_C538_C2       C     0.888142967     0.407318423     0.750000000
C539_C539_C2       C     0.903261195     0.403267924     0.250000000
C540_C540_C2       C     0.903261195     0.403267924     0.750000000
C541_C541_C2       C     0.868885662     0.368879942     0.250000000
C542_C542_C2       C     0.868885662     0.368879942     0.750000000
C543_C543_C2       C     0.853751830     0.372934560     0.250000000
C544_C544_C2       C     0.853751830     0.372934560     0.750000000
C545_C545_C2       C     0.872932867     0.353758278     0.250000000
C546_C546_C2       C     0.872932867     0.353758278     0.750000000
C547_C547_C2       C     0.842686388     0.361860180     0.250000000
C548_C548_C2       C     0.842686388     0.361860180     0.750000000
C549_C549_C2       C     0.861857033     0.342681577     0.250000000
C550_C550_C2       C     0.861857033     0.342681577     0.750000000
C551_C551_C2       C     0.846738805     0.346732076     0.250000000
C552_C552_C2       C     0.846738805     0.346732076     0.750000000
N553_N553_C1       N     0.985519198     0.993915635     0.250000000
N554_N554_C1       N     0.985519198     0.993915635     0.750000000
N555_N555_C1       N     0.001971186     0.015582925     0.250000000
N556_N556_C1       N     0.001971186     0.015582925     0.750000000
N557_N557_C1       N     0.012509616     0.990501440     0.250000000
N558_N558_C1       N     0.012509616     0.990501440     0.750000000
N559_N559_C1       N     0.014480802     0.506084365     0.250000000
N560_N560_C1       N     0.014480802     0.506084365     0.750000000
N561_N561_C1       N     0.998028814     0.484417075     0.250000000
N562_N562_C1       N     0.998028814     0.484417075     0.750000000
N563_N563_C1       N     0.987490384     0.509498560     0.250000000
N564_N564_C1       N     0.987490384     0.509498560     0.750000000
N565_N565_C1       N     0.256084365     0.235519198     0.250000000
N566_N566_C1       N     0.256084365     0.235519198     0.750000000
N567_N567_C1       N     0.234417075     0.251971186     0.250000000
N568_N568_C1       N     0.234417075     0.251971186     0.750000000
N569_N569_C1       N     0.259498560     0.262509616     0.250000000
N570_N570_C1       N     0.259498560     0.262509616     0.750000000
N571_N571_C1       N     0.743915635     0.264480802     0.250000000
N572_N572_C1       N     0.743915635     0.264480802     0.750000000
N573_N573_C1       N     0.765582925     0.248028814     0.250000000
N574_N574_C1       N     0.765582925     0.248028814     0.750000000
N575_N575_C1       N     0.740501440     0.237490384     0.250000000
N576_N576_C1       N     0.740501440     0.237490384     0.750000000
N577_N577_Q        N     0.163586006     0.163586006     0.250000000
N578_N578_Q        N     0.163586006     0.163586006     0.750000000
N579_N579_Q        N     0.086413994     0.086413994     0.250000000
N580_N580_Q        N     0.086413994     0.086413994     0.750000000
N581_N581_Q        N     0.086413994     0.413586006     0.250000000
N582_N582_Q        N     0.086413994     0.413586006     0.750000000
N583_N583_Q        N     0.163586006     0.336413994     0.250000000
N584_N584_Q        N     0.163586006     0.336413994     0.750000000
N585_N585_Q        N     1.000000000     0.804568853     0.250000000
N586_N586_Q        N     1.000000000     0.804568853     0.750000000
N587_N587_Q        N     1.000000000     0.695431147     0.250000000
N588_N588_Q        N     1.000000000     0.695431147     0.750000000
N589_N589_Q        N     0.554568853     0.250000000     0.250000000
N590_N590_Q        N     0.554568853     0.250000000     0.750000000
N591_N591_Q        N     0.445431147     0.250000000     0.250000000
N592_N592_Q        N     0.445431147     0.250000000     0.750000000
N593_N593_Q        N     0.836413994     0.163586006     0.250000000
N594_N594_Q        N     0.836413994     0.163586006     0.750000000
N595_N595_Q        N     0.913586006     0.086413994     0.250000000
N596_N596_Q        N     0.913586006     0.086413994     0.750000000
N597_N597_Q        N     0.913586006     0.413586006     0.250000000
N598_N598_Q        N     0.913586006     0.413586006     0.750000000
N599_N599_Q        N     0.836413994     0.336413994     0.250000000
N600_N600_Q        N     0.836413994     0.336413994     0.750000000
O601_O601_R        O     0.968747585     0.970642202     0.250000000
O602_O602_R        O     0.968747585     0.970642202     0.750000000
O603_O603_R        O     0.041050806     0.987613514     0.250000000
O604_O604_R        O     0.041050806     0.987613514     0.750000000
O605_O605_R        O     0.990201608     0.041744284     0.250000000
O606_O606_R        O     0.990201608     0.041744284     0.750000000
O607_O607_R        O     0.031252415     0.529357798     0.250000000
O608_O608_R        O     0.031252415     0.529357798     0.750000000
O609_O609_R        O     0.958949194     0.512386486     0.250000000
O610_O610_R        O     0.958949194     0.512386486     0.750000000
O611_O611_R        O     0.009798392     0.458255716     0.250000000
O612_O612_R        O     0.009798392     0.458255716     0.750000000
O613_O613_R        O     0.279357798     0.218747585     0.250000000
O614_O614_R        O     0.279357798     0.218747585     0.750000000
O615_O615_R        O     0.262386486     0.291050806     0.250000000
O616_O616_R        O     0.262386486     0.291050806     0.750000000
O617_O617_R        O     0.208255716     0.240201608     0.250000000
O618_O618_R        O     0.208255716     0.240201608     0.750000000
O619_O619_R        O     0.720642202     0.281252415     0.250000000
O620_O620_R        O     0.720642202     0.281252415     0.750000000
O621_O621_R        O     0.737613514     0.208949194     0.250000000
O622_O622_R        O     0.737613514     0.208949194     0.750000000
O623_O623_R        O     0.791744284     0.259798392     0.250000000
O624_O624_R        O     0.791744284     0.259798392     0.750000000

loop_
_geom_bond_atom_site_label_1
_geom_bond_atom_site_label_2
_geom_bond_distance
H1_Q       C259_Q     1.11046
H2_Q       C260_Q     1.11046
H3_Q       C261_Q     1.11046
H4_Q       C262_Q     1.11046
H5_Q       C263_Q     1.11046
H6_Q       C264_Q     1.11046
H7_R       O601_R     1.02108
H8_R       O602_R     1.02108
H9_R       O603_R     1.02108
H10_R      O604_R     1.02108
H11_R      O605_R     1.02108
H12_R      O606_R     1.02108
H13_R      C241_C1    1.09920
H14_R      C242_C1    1.09920
H15_R      C229_C1    1.09920
H16_R      C230_C1    1.09920
H17_R      C253_C1    1.09920
H18_R      C254_C1    1.09920
H19_R      C255_C1    1.09920
H20_R      C256_C1    1.09920
H21_R      C243_C1    1.09920
H22_R      C244_C1    1.09920
H23_R      C231_C1    1.09920
H24_R      C232_C1    1.09920
H25_R      C251_C1    1.09920
H26_R      C252_C1    1.09920
H27_R      C239_C1    1.09920
H28_R      C240_C1    1.09920
H29_R      C227_C1    1.09920
H30_R      C228_C1    1.09920
H31_Q      C307_Q     1.11046
H32_Q      C308_Q     1.11046
H33_Q      C309_Q     1.11046
H34_Q      C310_Q     1.11046
H35_Q      C311_Q     1.11046
H36_Q      C312_Q     1.11046
H37_R      O607_R     1.02108
H38_R      O608_R     1.02108
H39_R      O609_R     1.02108
H40_R      O610_R     1.02108
H41_R      O611_R     1.02108
H42_R      O612_R     1.02108
H43_R      C289_C1    1.09920
H44_R      C290_C1    1.09920
H45_R      C277_C1    1.09920
H46_R      C278_C1    1.09920
H47_R      C301_C1    1.09920
H48_R      C302_C1    1.09920
H49_R      C303_C1    1.09920
H50_R      C304_C1    1.09920
H51_R      C291_C1    1.09920
H52_R      C292_C1    1.09920
H53_R      C279_C1    1.09920
H54_R      C280_C1    1.09920
H55_R      C299_C1    1.09920
H56_R      C300_C1    1.09920
H57_R      C287_C1    1.09920
H58_R      C288_C1    1.09920
H59_R      C275_C1    1.09920
H60_R      C276_C1    1.09920
H61_Q      C355_Q     1.11046
H62_Q      C356_Q     1.11046
H63_Q      C357_Q     1.11046
H64_Q      C358_Q     1.11046
H65_Q      C359_Q     1.11046
H66_Q      C360_Q     1.11046
H67_R      O613_R     1.02108
H68_R      O614_R     1.02108
H69_R      O615_R     1.02108
H70_R      O616_R     1.02108
H71_R      O617_R     1.02108
H72_R      O618_R     1.02108
H73_R      C337_C1    1.09920
H74_R      C338_C1    1.09920
H75_R      C325_C1    1.09920
H76_R      C326_C1    1.09920
H77_R      C349_C1    1.09920
H78_R      C350_C1    1.09920
H79_R      C351_C1    1.09920
H80_R      C352_C1    1.09920
H81_R      C339_C1    1.09920
H82_R      C340_C1    1.09920
H83_R      C327_C1    1.09920
H84_R      C328_C1    1.09920
H85_R      C347_C1    1.09920
H86_R      C348_C1    1.09920
H87_R      C335_C1    1.09920
H88_R      C336_C1    1.09920
H89_R      C323_C1    1.09920
H90_R      C324_C1    1.09920
H91_Q      C403_Q     1.11046
H92_Q      C404_Q     1.11046
H93_Q      C405_Q     1.11046
H94_Q      C406_Q     1.11046
H95_Q      C407_Q     1.11046
H96_Q      C408_Q     1.11046
H97_R      O619_R     1.02108
H98_R      O620_R     1.02108
H99_R      O621_R     1.02108
H100_R     O622_R     1.02108
H101_R     O623_R     1.02108
H102_R     O624_R     1.02108
H103_R     C385_C1    1.09920
H104_R     C386_C1    1.09920
H105_R     C373_C1    1.09920
H106_R     C374_C1    1.09920
H107_R     C397_C1    1.09920
H108_R     C398_C1    1.09920
H109_R     C399_C1    1.09920
H110_R     C400_C1    1.09920
H111_R     C387_C1    1.09920
H112_R     C388_C1    1.09920
H113_R     C375_C1    1.09920
H114_R     C376_C1    1.09920
H115_R     C395_C1    1.09920
H116_R     C396_C1    1.09920
H117_R     C383_C1    1.09920
H118_R     C384_C1    1.09920
H119_R     C371_C1    1.09920
H120_R     C372_C1    1.09920
H121_R     C429_C2    1.09920
H122_R     C430_C2    1.09920
H123_R     C417_C2    1.09920
H124_R     C418_C2    1.09920
H125_R     C409_C2    1.09920
H126_R     C410_C2    1.09920
H127_R     C427_C2    1.09920
H128_R     C428_C2    1.09920
H129_R     C415_C2    1.09920
H130_R     C416_C2    1.09920
H131_R     C425_C2    1.09920
H132_R     C426_C2    1.09920
H133_R     C411_C2    1.09920
H134_R     C412_C2    1.09920
H135_R     C423_C2    1.09920
H136_R     C424_C2    1.09920
H137_R     C453_C2    1.09920
H138_R     C454_C2    1.09920
H139_R     C441_C2    1.09920
H140_R     C442_C2    1.09920
H141_R     C433_C2    1.09920
H142_R     C434_C2    1.09920
H143_R     C451_C2    1.09920
H144_R     C452_C2    1.09920
H145_R     C439_C2    1.09920
H146_R     C440_C2    1.09920
H147_R     C449_C2    1.09920
H148_R     C450_C2    1.09920
H149_R     C435_C2    1.09920
H150_R     C436_C2    1.09920
H151_R     C447_C2    1.09920
H152_R     C448_C2    1.09920
H153_R     C477_C2    1.09920
H154_R     C478_C2    1.09920
H155_R     C465_C2    1.09920
H156_R     C466_C2    1.09920
H157_R     C457_C2    1.09920
H158_R     C458_C2    1.09920
H159_R     C475_C2    1.09920
H160_R     C476_C2    1.09920
H161_R     C463_C2    1.09920
H162_R     C464_C2    1.09920
H163_R     C473_C2    1.09920
H164_R     C474_C2    1.09920
H165_R     C459_C2    1.09920
H166_R     C460_C2    1.09920
H167_R     C471_C2    1.09920
H168_R     C472_C2    1.09920
H169_R     C501_C2    1.09920
H170_R     C502_C2    1.09920
H171_R     C489_C2    1.09920
H172_R     C490_C2    1.09920
H173_R     C481_C2    1.09920
H174_R     C482_C2    1.09920
H175_R     C499_C2    1.09920
H176_R     C500_C2    1.09920
H177_R     C487_C2    1.09920
H178_R     C488_C2    1.09920
H179_R     C497_C2    1.09920
H180_R     C498_C2    1.09920
H181_R     C483_C2    1.09920
H182_R     C484_C2    1.09920
H183_R     C495_C2    1.09920
H184_R     C496_C2    1.09920
H185_R     C525_C2    1.09920
H186_R     C526_C2    1.09920
H187_R     C513_C2    1.09920
H188_R     C514_C2    1.09920
H189_R     C505_C2    1.09920
H190_R     C506_C2    1.09920
H191_R     C523_C2    1.09920
H192_R     C524_C2    1.09920
H193_R     C511_C2    1.09920
H194_R     C512_C2    1.09920
H195_R     C521_C2    1.09920
H196_R     C522_C2    1.09920
H197_R     C507_C2    1.09920
H198_R     C508_C2    1.09920
H199_R     C519_C2    1.09920
H200_R     C520_C2    1.09920
H201_R     C549_C2    1.09920
H202_R     C550_C2    1.09920
H203_R     C537_C2    1.09920
H204_R     C538_C2    1.09920
H205_R     C529_C2    1.09920
H206_R     C530_C2    1.09920
H207_R     C547_C2    1.09920
H208_R     C548_C2    1.09920
H209_R     C535_C2    1.09920
H210_R     C536_C2    1.09920
H211_R     C545_C2    1.09920
H212_R     C546_C2    1.09920
H213_R     C531_C2    1.09920
H214_R     C532_C2    1.09920
H215_R     C543_C2    1.09920
H216_R     C544_C2    1.09920
C217_C1    N553_C1    1.39888
C217_C1    C235_C1    1.54433
C217_C1    N557_C1    1.39915
C218_C1    N554_C1    1.39888
C218_C1    C236_C1    1.54433
C218_C1    N558_C1    1.39915
C219_C1    N557_C1    1.39888
C219_C1    N555_C1    1.39915
C219_C1    C223_C1    1.54433
C220_C1    N558_C1    1.39888
C220_C1    N556_C1    1.39915
C220_C1    C224_C1    1.54433
C221_C1    N553_C1    1.39915
C221_C1    N555_C1    1.39888
C221_C1    C247_C1    1.54433
C222_C1    N554_C1    1.39915
C222_C1    N556_C1    1.39888
C222_C1    C248_C1    1.54433
C223_C1    C227_C1    1.38510
C223_C1    C225_C1    1.38542
C223_C1    C219_C1    1.54433
C224_C1    C228_C1    1.38510
C224_C1    C226_C1    1.38542
C224_C1    C220_C1    1.54433
C225_C1    O603_R     1.43000
C225_C1    C223_C1    1.38542
C225_C1    C229_C1    1.40130
C226_C1    O604_R     1.43000
C226_C1    C224_C1    1.38542
C226_C1    C230_C1    1.40130
C227_C1    C231_C1    1.40115
C227_C1    C223_C1    1.38510
C227_C1    H29_R      1.09920
C228_C1    C232_C1    1.40115
C228_C1    C224_C1    1.38510
C228_C1    H30_R      1.09920
C229_C1    C225_C1    1.40130
C229_C1    C233_C1    1.37027
C229_C1    H15_R      1.09920
C230_C1    C226_C1    1.40130
C230_C1    C234_C1    1.37027
C230_C1    H16_R      1.09920
C231_C1    C227_C1    1.40115
C231_C1    H23_R      1.09920
C231_C1    C233_C1    1.37044
C232_C1    C228_C1    1.40115
C232_C1    H24_R      1.09920
C232_C1    C234_C1    1.37044
C233_C1    C231_C1    1.37044
C233_C1    C261_Q     1.55000
C233_C1    C229_C1    1.37027
C234_C1    C232_C1    1.37044
C234_C1    C262_Q     1.55000
C234_C1    C230_C1    1.37027
C235_C1    C239_C1    1.38510
C235_C1    C237_C1    1.38542
C235_C1    C217_C1    1.54433
C236_C1    C240_C1    1.38510
C236_C1    C238_C1    1.38542
C236_C1    C218_C1    1.54433
C237_C1    C241_C1    1.40130
C237_C1    O601_R     1.43000
C237_C1    C235_C1    1.38542
C238_C1    C242_C1    1.40130
C238_C1    O602_R     1.43000
C238_C1    C236_C1    1.38542
C239_C1    C235_C1    1.38510
C239_C1    C243_C1    1.40115
C239_C1    H27_R      1.09920
C240_C1    C236_C1    1.38510
C240_C1    C244_C1    1.40115
C240_C1    H28_R      1.09920
C241_C1    C245_C1    1.37027
C241_C1    H13_R      1.09920
C241_C1    C237_C1    1.40130
C242_C1    C246_C1    1.37027
C242_C1    H14_R      1.09920
C242_C1    C238_C1    1.40130
C243_C1    C245_C1    1.37044
C243_C1    H21_R      1.09920
C243_C1    C239_C1    1.40115
C244_C1    C246_C1    1.37044
C244_C1    H22_R      1.09920
C244_C1    C240_C1    1.40115
C245_C1    C243_C1    1.37044
C245_C1    C259_Q     1.55000
C245_C1    C241_C1    1.37027
C246_C1    C244_C1    1.37044
C246_C1    C260_Q     1.55000
C246_C1    C242_C1    1.37027
C247_C1    C251_C1    1.38510
C247_C1    C249_C1    1.38542
C247_C1    C221_C1    1.54433
C248_C1    C252_C1    1.38510
C248_C1    C250_C1    1.38542
C248_C1    C222_C1    1.54433
C249_C1    O605_R     1.43000
C249_C1    C253_C1    1.40130
C249_C1    C247_C1    1.38542
C250_C1    O606_R     1.43000
C250_C1    C254_C1    1.40130
C250_C1    C248_C1    1.38542
C251_C1    C255_C1    1.40115
C251_C1    C247_C1    1.38510
C251_C1    H25_R      1.09920
C252_C1    C256_C1    1.40115
C252_C1    C248_C1    1.38510
C252_C1    H26_R      1.09920
C253_C1    C257_C1    1.37027
C253_C1    C249_C1    1.40130
C253_C1    H17_R      1.09920
C254_C1    C258_C1    1.37027
C254_C1    C250_C1    1.40130
C254_C1    H18_R      1.09920
C255_C1    C257_C1    1.37044
C255_C1    H19_R      1.09920
C255_C1    C251_C1    1.40115
C256_C1    C258_C1    1.37044
C256_C1    H20_R      1.09920
C256_C1    C252_C1    1.40115
C257_C1    C263_Q     1.55000
C257_C1    C255_C1    1.37044
C257_C1    C253_C1    1.37027
C258_C1    C264_Q     1.55000
C258_C1    C256_C1    1.37044
C258_C1    C254_C1    1.37027
C259_Q     C245_C1    1.55000
C259_Q     H1_Q       1.11046
C260_Q     C246_C1    1.55000
C260_Q     H2_Q       1.11046
C261_Q     C233_C1    1.55000
C261_Q     H3_Q       1.11046
C262_Q     C234_C1    1.55000
C262_Q     H4_Q       1.11046
C263_Q     C257_C1    1.55000
C263_Q     H5_Q       1.11046
C264_Q     C258_C1    1.55000
C264_Q     H6_Q       1.11046
C265_C1    N563_C1    1.39915
C265_C1    N559_C1    1.39888
C265_C1    C283_C1    1.54433
C266_C1    N564_C1    1.39915
C266_C1    N560_C1    1.39888
C266_C1    C284_C1    1.54433
C267_C1    N561_C1    1.39915
C267_C1    C271_C1    1.54433
C267_C1    N563_C1    1.39888
C268_C1    N562_C1    1.39915
C268_C1    C272_C1    1.54433
C268_C1    N564_C1    1.39888
C269_C1    N561_C1    1.39888
C269_C1    N559_C1    1.39915
C269_C1    C295_C1    1.54433
C270_C1    N562_C1    1.39888
C270_C1    N560_C1    1.39915
C270_C1    C296_C1    1.54433
C271_C1    C275_C1    1.38510
C271_C1    C273_C1    1.38542
C271_C1    C267_C1    1.54433
C272_C1    C276_C1    1.38510
C272_C1    C274_C1    1.38542
C272_C1    C268_C1    1.54433
C273_C1    C277_C1    1.40130
C273_C1    C271_C1    1.38542
C273_C1    O609_R     1.43000
C274_C1    C278_C1    1.40130
C274_C1    C272_C1    1.38542
C274_C1    O610_R     1.43000
C275_C1    C279_C1    1.40115
C275_C1    C271_C1    1.38510
C275_C1    H59_R      1.09920
C276_C1    C280_C1    1.40115
C276_C1    C272_C1    1.38510
C276_C1    H60_R      1.09920
C277_C1    C281_C1    1.37027
C277_C1    H45_R      1.09920
C277_C1    C273_C1    1.40130
C278_C1    C282_C1    1.37027
C278_C1    H46_R      1.09920
C278_C1    C274_C1    1.40130
C279_C1    C281_C1    1.37044
C279_C1    H53_R      1.09920
C279_C1    C275_C1    1.40115
C280_C1    C282_C1    1.37044
C280_C1    H54_R      1.09920
C280_C1    C276_C1    1.40115
C281_C1    C309_Q     1.55000
C281_C1    C279_C1    1.37044
C281_C1    C277_C1    1.37027
C282_C1    C310_Q     1.55000
C282_C1    C280_C1    1.37044
C282_C1    C278_C1    1.37027
C283_C1    C287_C1    1.38510
C283_C1    C285_C1    1.38542
C283_C1    C265_C1    1.54433
C284_C1    C288_C1    1.38510
C284_C1    C286_C1    1.38542
C284_C1    C266_C1    1.54433
C285_C1    O607_R     1.43000
C285_C1    C289_C1    1.40130
C285_C1    C283_C1    1.38542
C286_C1    O608_R     1.43000
C286_C1    C290_C1    1.40130
C286_C1    C284_C1    1.38542
C287_C1    C283_C1    1.38510
C287_C1    C291_C1    1.40115
C287_C1    H57_R      1.09920
C288_C1    C284_C1    1.38510
C288_C1    C292_C1    1.40115
C288_C1    H58_R      1.09920
C289_C1    C285_C1    1.40130
C289_C1    H43_R      1.09920
C289_C1    C293_C1    1.37027
C290_C1    C286_C1    1.40130
C290_C1    H44_R      1.09920
C290_C1    C294_C1    1.37027
C291_C1    C287_C1    1.40115
C291_C1    C293_C1    1.37044
C291_C1    H51_R      1.09920
C292_C1    C288_C1    1.40115
C292_C1    C294_C1    1.37044
C292_C1    H52_R      1.09920
C293_C1    C291_C1    1.37044
C293_C1    C289_C1    1.37027
C293_C1    C307_Q     1.55000
C294_C1    C292_C1    1.37044
C294_C1    C290_C1    1.37027
C294_C1    C308_Q     1.55000
C295_C1    C299_C1    1.38510
C295_C1    C297_C1    1.38542
C295_C1    C269_C1    1.54433
C296_C1    C300_C1    1.38510
C296_C1    C298_C1    1.38542
C296_C1    C270_C1    1.54433
C297_C1    O611_R     1.43000
C297_C1    C301_C1    1.40130
C297_C1    C295_C1    1.38542
C298_C1    O612_R     1.43000
C298_C1    C302_C1    1.40130
C298_C1    C296_C1    1.38542
C299_C1    C303_C1    1.40115
C299_C1    C295_C1    1.38510
C299_C1    H55_R      1.09920
C300_C1    C304_C1    1.40115
C300_C1    C296_C1    1.38510
C300_C1    H56_R      1.09920
C301_C1    H47_R      1.09920
C301_C1    C305_C1    1.37027
C301_C1    C297_C1    1.40130
C302_C1    H48_R      1.09920
C302_C1    C306_C1    1.37027
C302_C1    C298_C1    1.40130
C303_C1    C305_C1    1.37044
C303_C1    C299_C1    1.40115
C303_C1    H49_R      1.09920
C304_C1    C306_C1    1.37044
C304_C1    C300_C1    1.40115
C304_C1    H50_R      1.09920
C305_C1    C303_C1    1.37044
C305_C1    C301_C1    1.37027
C305_C1    C311_Q     1.55000
C306_C1    C304_C1    1.37044
C306_C1    C302_C1    1.37027
C306_C1    C312_Q     1.55000
C307_Q     C293_C1    1.55000
C307_Q     H31_Q      1.11046
C308_Q     C294_C1    1.55000
C308_Q     H32_Q      1.11046
C309_Q     C281_C1    1.55000
C309_Q     H33_Q      1.11046
C310_Q     C282_C1    1.55000
C310_Q     H34_Q      1.11046
C311_Q     C305_C1    1.55000
C311_Q     H35_Q      1.11046
C312_Q     C306_C1    1.55000
C312_Q     H36_Q      1.11046
C313_C1    N569_C1    1.39915
C313_C1    N565_C1    1.39888
C313_C1    C331_C1    1.54433
C314_C1    N570_C1    1.39915
C314_C1    N566_C1    1.39888
C314_C1    C332_C1    1.54433
C315_C1    N569_C1    1.39888
C315_C1    N567_C1    1.39915
C315_C1    C319_C1    1.54433
C316_C1    N570_C1    1.39888
C316_C1    N568_C1    1.39915
C316_C1    C320_C1    1.54433
C317_C1    C343_C1    1.54433
C317_C1    N567_C1    1.39888
C317_C1    N565_C1    1.39915
C318_C1    C344_C1    1.54433
C318_C1    N568_C1    1.39888
C318_C1    N566_C1    1.39915
C319_C1    C323_C1    1.38510
C319_C1    C315_C1    1.54433
C319_C1    C321_C1    1.38542
C320_C1    C324_C1    1.38510
C320_C1    C316_C1    1.54433
C320_C1    C322_C1    1.38542
C321_C1    C319_C1    1.38542
C321_C1    O615_R     1.43000
C321_C1    C325_C1    1.40130
C322_C1    C320_C1    1.38542
C322_C1    O616_R     1.43000
C322_C1    C326_C1    1.40130
C323_C1    H89_R      1.09920
C323_C1    C327_C1    1.40115
C323_C1    C319_C1    1.38510
C324_C1    H90_R      1.09920
C324_C1    C328_C1    1.40115
C324_C1    C320_C1    1.38510
C325_C1    C329_C1    1.37027
C325_C1    C321_C1    1.40130
C325_C1    H75_R      1.09920
C326_C1    C330_C1    1.37027
C326_C1    C322_C1    1.40130
C326_C1    H76_R      1.09920
C327_C1    C323_C1    1.40115
C327_C1    H83_R      1.09920
C327_C1    C329_C1    1.37044
C328_C1    C324_C1    1.40115
C328_C1    H84_R      1.09920
C328_C1    C330_C1    1.37044
C329_C1    C357_Q     1.55000
C329_C1    C327_C1    1.37044
C329_C1    C325_C1    1.37027
C330_C1    C358_Q     1.55000
C330_C1    C328_C1    1.37044
C330_C1    C326_C1    1.37027
C331_C1    C313_C1    1.54433
C331_C1    C335_C1    1.38510
C331_C1    C333_C1    1.38542
C332_C1    C314_C1    1.54433
C332_C1    C336_C1    1.38510
C332_C1    C334_C1    1.38542
C333_C1    O613_R     1.43000
C333_C1    C337_C1    1.40130
C333_C1    C331_C1    1.38542
C334_C1    O614_R     1.43000
C334_C1    C338_C1    1.40130
C334_C1    C332_C1    1.38542
C335_C1    C339_C1    1.40115
C335_C1    C331_C1    1.38510
C335_C1    H87_R      1.09920
C336_C1    C340_C1    1.40115
C336_C1    C332_C1    1.38510
C336_C1    H88_R      1.09920
C337_C1    H73_R      1.09920
C337_C1    C341_C1    1.37027
C337_C1    C333_C1    1.40130
C338_C1    H74_R      1.09920
C338_C1    C342_C1    1.37027
C338_C1    C334_C1    1.40130
C339_C1    C341_C1    1.37044
C339_C1    C335_C1    1.40115
C339_C1    H81_R      1.09920
C340_C1    C342_C1    1.37044
C340_C1    C336_C1    1.40115
C340_C1    H82_R      1.09920
C341_C1    C355_Q     1.55000
C341_C1    C339_C1    1.37044
C341_C1    C337_C1    1.37027
C342_C1    C356_Q     1.55000
C342_C1    C340_C1    1.37044
C342_C1    C338_C1    1.37027
C343_C1    C345_C1    1.38542
C343_C1    C347_C1    1.38510
C343_C1    C317_C1    1.54433
C344_C1    C346_C1    1.38542
C344_C1    C348_C1    1.38510
C344_C1    C318_C1    1.54433
C345_C1    C349_C1    1.40130
C345_C1    O617_R     1.43000
C345_C1    C343_C1    1.38542
C346_C1    C350_C1    1.40130
C346_C1    O618_R     1.43000
C346_C1    C344_C1    1.38542
C347_C1    C351_C1    1.40115
C347_C1    C343_C1    1.38510
C347_C1    H85_R      1.09920
C348_C1    C352_C1    1.40115
C348_C1    C344_C1    1.38510
C348_C1    H86_R      1.09920
C349_C1    C353_C1    1.37027
C349_C1    C345_C1    1.40130
C349_C1    H77_R      1.09920
C350_C1    C354_C1    1.37027
C350_C1    C346_C1    1.40130
C350_C1    H78_R      1.09920
C351_C1    C353_C1    1.37044
C351_C1    C347_C1    1.40115
C351_C1    H79_R      1.09920
C352_C1    C354_C1    1.37044
C352_C1    C348_C1    1.40115
C352_C1    H80_R      1.09920
C353_C1    C359_Q     1.55000
C353_C1    C349_C1    1.37027
C353_C1    C351_C1    1.37044
C354_C1    C360_Q     1.55000
C354_C1    C350_C1    1.37027
C354_C1    C352_C1    1.37044
C355_Q     C341_C1    1.55000
C355_Q     H61_Q      1.11046
C356_Q     C342_C1    1.55000
C356_Q     H62_Q      1.11046
C357_Q     H63_Q      1.11046
C357_Q     C329_C1    1.55000
C358_Q     H64_Q      1.11046
C358_Q     C330_C1    1.55000
C359_Q     C353_C1    1.55000
C359_Q     H65_Q      1.11046
C360_Q     C354_C1    1.55000
C360_Q     H66_Q      1.11046
C361_C1    C379_C1    1.54433
C361_C1    N575_C1    1.39915
C361_C1    N571_C1    1.39888
C362_C1    C380_C1    1.54433
C362_C1    N576_C1    1.39915
C362_C1    N572_C1    1.39888
C363_C1    C367_C1    1.54433
C363_C1    N575_C1    1.39888
C363_C1    N573_C1    1.39915
C364_C1    C368_C1    1.54433
C364_C1    N576_C1    1.39888
C364_C1    N574_C1    1.39915
C365_C1    N573_C1    1.39888
C365_C1    N571_C1    1.39915
C365_C1    C391_C1    1.54433
C366_C1    N574_C1    1.39888
C366_C1    N572_C1    1.39915
C366_C1    C392_C1    1.54433
C367_C1    C371_C1    1.38510
C367_C1    C369_C1    1.38542
C367_C1    C363_C1    1.54433
C368_C1    C372_C1    1.38510
C368_C1    C370_C1    1.38542
C368_C1    C364_C1    1.54433
C369_C1    O621_R     1.43000
C369_C1    C373_C1    1.40130
C369_C1    C367_C1    1.38542
C370_C1    O622_R     1.43000
C370_C1    C374_C1    1.40130
C370_C1    C368_C1    1.38542
C371_C1    C375_C1    1.40115
C371_C1    C367_C1    1.38510
C371_C1    H119_R     1.09920
C372_C1    C376_C1    1.40115
C372_C1    C368_C1    1.38510
C372_C1    H120_R     1.09920
C373_C1    C377_C1    1.37027
C373_C1    C369_C1    1.40130
C373_C1    H105_R     1.09920
C374_C1    C378_C1    1.37027
C374_C1    C370_C1    1.40130
C374_C1    H106_R     1.09920
C375_C1    C377_C1    1.37044
C375_C1    C371_C1    1.40115
C375_C1    H113_R     1.09920
C376_C1    C378_C1    1.37044
C376_C1    C372_C1    1.40115
C376_C1    H114_R     1.09920
C377_C1    C405_Q     1.55000
C377_C1    C375_C1    1.37044
C377_C1    C373_C1    1.37027
C378_C1    C406_Q     1.55000
C378_C1    C376_C1    1.37044
C378_C1    C374_C1    1.37027
C379_C1    C383_C1    1.38510
C379_C1    C381_C1    1.38542
C379_C1    C361_C1    1.54433
C380_C1    C384_C1    1.38510
C380_C1    C382_C1    1.38542
C380_C1    C362_C1    1.54433
C381_C1    O619_R     1.43000
C381_C1    C385_C1    1.40130
C381_C1    C379_C1    1.38542
C382_C1    O620_R     1.43000
C382_C1    C386_C1    1.40130
C382_C1    C380_C1    1.38542
C383_C1    C387_C1    1.40115
C383_C1    C379_C1    1.38510
C383_C1    H117_R     1.09920
C384_C1    C388_C1    1.40115
C384_C1    C380_C1    1.38510
C384_C1    H118_R     1.09920
C385_C1    C389_C1    1.37027
C385_C1    C381_C1    1.40130
C385_C1    H103_R     1.09920
C386_C1    C390_C1    1.37027
C386_C1    C382_C1    1.40130
C386_C1    H104_R     1.09920
C387_C1    C389_C1    1.37044
C387_C1    C383_C1    1.40115
C387_C1    H111_R     1.09920
C388_C1    C390_C1    1.37044
C388_C1    C384_C1    1.40115
C388_C1    H112_R     1.09920
C389_C1    C403_Q     1.55000
C389_C1    C387_C1    1.37044
C389_C1    C385_C1    1.37027
C390_C1    C404_Q     1.55000
C390_C1    C388_C1    1.37044
C390_C1    C386_C1    1.37027
C391_C1    C393_C1    1.38542
C391_C1    C365_C1    1.54433
C391_C1    C395_C1    1.38510
C392_C1    C394_C1    1.38542
C392_C1    C366_C1    1.54433
C392_C1    C396_C1    1.38510
C393_C1    C391_C1    1.38542
C393_C1    O623_R     1.43000
C393_C1    C397_C1    1.40130
C394_C1    C392_C1    1.38542
C394_C1    O624_R     1.43000
C394_C1    C398_C1    1.40130
C395_C1    C391_C1    1.38510
C395_C1    C399_C1    1.40115
C395_C1    H115_R     1.09920
C396_C1    C392_C1    1.38510
C396_C1    C400_C1    1.40115
C396_C1    H116_R     1.09920
C397_C1    C393_C1    1.40130
C397_C1    C401_C1    1.37027
C397_C1    H107_R     1.09920
C398_C1    C394_C1    1.40130
C398_C1    C402_C1    1.37027
C398_C1    H108_R     1.09920
C399_C1    C395_C1    1.40115
C399_C1    H109_R     1.09920
C399_C1    C401_C1    1.37044
C400_C1    C396_C1    1.40115
C400_C1    H110_R     1.09920
C400_C1    C402_C1    1.37044
C401_C1    C399_C1    1.37044
C401_C1    C407_Q     1.55000
C401_C1    C397_C1    1.37027
C402_C1    C400_C1    1.37044
C402_C1    C408_Q     1.55000
C402_C1    C398_C1    1.37027
C403_Q     H91_Q      1.11046
C403_Q     C389_C1    1.55000
C404_Q     H92_Q      1.11046
C404_Q     C390_C1    1.55000
C405_Q     C377_C1    1.55000
C405_Q     H93_Q      1.11046
C406_Q     C378_C1    1.55000
C406_Q     H94_Q      1.11046
C407_Q     C401_C1    1.55000
C407_Q     H95_Q      1.11046
C408_Q     C402_C1    1.55000
C408_Q     H96_Q      1.11046
C409_C2    C419_C2    1.39483
C409_C2    C411_C2    1.39427
C409_C2    H125_R     1.09920
C410_C2    C420_C2    1.39483
C410_C2    C412_C2    1.39427
C410_C2    H126_R     1.09920
C411_C2    C413_C2    1.39537
C411_C2    C409_C2    1.39427
C411_C2    H133_R     1.09920
C412_C2    C414_C2    1.39537
C412_C2    C410_C2    1.39427
C412_C2    H134_R     1.09920
C413_C2    C421_C2    1.54094
C413_C2    C415_C2    1.39415
C413_C2    C411_C2    1.39537
C414_C2    C422_C2    1.54094
C414_C2    C416_C2    1.39415
C414_C2    C412_C2    1.39537
C415_C2    C417_C2    1.39507
C415_C2    C413_C2    1.39415
C415_C2    H129_R     1.09920
C416_C2    C418_C2    1.39507
C416_C2    C414_C2    1.39415
C416_C2    H130_R     1.09920
C417_C2    C419_C2    1.39393
C417_C2    C415_C2    1.39507
C417_C2    H123_R     1.09920
C418_C2    C420_C2    1.39393
C418_C2    C416_C2    1.39507
C418_C2    H124_R     1.09920
C419_C2    N577_Q     1.30000
C419_C2    C417_C2    1.39393
C419_C2    C409_C2    1.39483
C420_C2    N578_Q     1.30000
C420_C2    C418_C2    1.39393
C420_C2    C410_C2    1.39483
C421_C2    C423_C2    1.39537
C421_C2    C425_C2    1.39415
C421_C2    C413_C2    1.54094
C422_C2    C424_C2    1.39537
C422_C2    C426_C2    1.39415
C422_C2    C414_C2    1.54094
C423_C2    C427_C2    1.39427
C423_C2    H135_R     1.09920
C423_C2    C421_C2    1.39537
C424_C2    C428_C2    1.39427
C424_C2    H136_R     1.09920
C424_C2    C422_C2    1.39537
C425_C2    C429_C2    1.39507
C425_C2    H131_R     1.09920
C425_C2    C421_C2    1.39415
C426_C2    C430_C2    1.39507
C426_C2    H132_R     1.09920
C426_C2    C422_C2    1.39415
C427_C2    C431_C2    1.39483
C427_C2    C423_C2    1.39427
C427_C2    H127_R     1.09920
C428_C2    C432_C2    1.39483
C428_C2    C424_C2    1.39427
C428_C2    H128_R     1.09920
C429_C2    C431_C2    1.39393
C429_C2    C425_C2    1.39507
C429_C2    H121_R     1.09920
C430_C2    C432_C2    1.39393
C430_C2    C426_C2    1.39507
C430_C2    H122_R     1.09920
C431_C2    N579_Q     1.30000
C431_C2    C429_C2    1.39393
C431_C2    C427_C2    1.39483
C432_C2    N580_Q     1.30000
C432_C2    C430_C2    1.39393
C432_C2    C428_C2    1.39483
C433_C2    C443_C2    1.39483
C433_C2    C435_C2    1.39427
C433_C2    H141_R     1.09920
C434_C2    C444_C2    1.39483
C434_C2    C436_C2    1.39427
C434_C2    H142_R     1.09920
C435_C2    C433_C2    1.39427
C435_C2    C437_C2    1.39537
C435_C2    H149_R     1.09920
C436_C2    C434_C2    1.39427
C436_C2    C438_C2    1.39537
C436_C2    H150_R     1.09920
C437_C2    C439_C2    1.39415
C437_C2    C445_C2    1.54094
C437_C2    C435_C2    1.39537
C438_C2    C440_C2    1.39415
C438_C2    C446_C2    1.54094
C438_C2    C436_C2    1.39537
C439_C2    C441_C2    1.39507
C439_C2    H145_R     1.09920
C439_C2    C437_C2    1.39415
C440_C2    C442_C2    1.39507
C440_C2    H146_R     1.09920
C440_C2    C438_C2    1.39415
C441_C2    C439_C2    1.39507
C441_C2    H139_R     1.09920
C441_C2    C443_C2    1.39393
C442_C2    C440_C2    1.39507
C442_C2    H140_R     1.09920
C442_C2    C444_C2    1.39393
C443_C2    C441_C2    1.39393
C443_C2    N581_Q     1.30000
C443_C2    C433_C2    1.39483
C444_C2    C442_C2    1.39393
C444_C2    N582_Q     1.30000
C444_C2    C434_C2    1.39483
C445_C2    C449_C2    1.39415
C445_C2    C447_C2    1.39537
C445_C2    C437_C2    1.54094
C446_C2    C450_C2    1.39415
C446_C2    C448_C2    1.39537
C446_C2    C438_C2    1.54094
C447_C2    C451_C2    1.39427
C447_C2    C445_C2    1.39537
C447_C2    H151_R     1.09920
C448_C2    C452_C2    1.39427
C448_C2    C446_C2    1.39537
C448_C2    H152_R     1.09920
C449_C2    C453_C2    1.39507
C449_C2    C445_C2    1.39415
C449_C2    H147_R     1.09920
C450_C2    C454_C2    1.39507
C450_C2    C446_C2    1.39415
C450_C2    H148_R     1.09920
C451_C2    H143_R     1.09920
C451_C2    C455_C2    1.39483
C451_C2    C447_C2    1.39427
C452_C2    H144_R     1.09920
C452_C2    C456_C2    1.39483
C452_C2    C448_C2    1.39427
C453_C2    C455_C2    1.39393
C453_C2    C449_C2    1.39507
C453_C2    H137_R     1.09920
C454_C2    C456_C2    1.39393
C454_C2    C450_C2    1.39507
C454_C2    H138_R     1.09920
C455_C2    N583_Q     1.30000
C455_C2    C453_C2    1.39393
C455_C2    C451_C2    1.39483
C456_C2    N584_Q     1.30000
C456_C2    C454_C2    1.39393
C456_C2    C452_C2    1.39483
C457_C2    C467_C2    1.39483
C457_C2    C459_C2    1.39427
C457_C2    H157_R     1.09920
C458_C2    C468_C2    1.39483
C458_C2    C460_C2    1.39427
C458_C2    H158_R     1.09920
C459_C2    C461_C2    1.39537
C459_C2    C457_C2    1.39427
C459_C2    H165_R     1.09920
C460_C2    C462_C2    1.39537
C460_C2    C458_C2    1.39427
C460_C2    H166_R     1.09920
C461_C2    C469_C2    1.54094
C461_C2    C463_C2    1.39415
C461_C2    C459_C2    1.39537
C462_C2    C470_C2    1.54094
C462_C2    C464_C2    1.39415
C462_C2    C460_C2    1.39537
C463_C2    C465_C2    1.39507
C463_C2    C461_C2    1.39415
C463_C2    H161_R     1.09920
C464_C2    C466_C2    1.39507
C464_C2    C462_C2    1.39415
C464_C2    H162_R     1.09920
C465_C2    C463_C2    1.39507
C465_C2    C467_C2    1.39393
C465_C2    H155_R     1.09920
C466_C2    C464_C2    1.39507
C466_C2    C468_C2    1.39393
C466_C2    H156_R     1.09920
C467_C2    C465_C2    1.39393
C467_C2    N585_Q     1.30000
C467_C2    C457_C2    1.39483
C468_C2    C466_C2    1.39393
C468_C2    N586_Q     1.30000
C468_C2    C458_C2    1.39483
C469_C2    C471_C2    1.39537
C469_C2    C461_C2    1.54094
C469_C2    C473_C2    1.39415
C470_C2    C472_C2    1.39537
C470_C2    C462_C2    1.54094
C470_C2    C474_C2    1.39415
C471_C2    C475_C2    1.39427
C471_C2    C469_C2    1.39537
C471_C2    H167_R     1.09920
C472_C2    C476_C2    1.39427
C472_C2    C470_C2    1.39537
C472_C2    H168_R     1.09920
C473_C2    C477_C2    1.39507
C473_C2    C469_C2    1.39415
C473_C2    H163_R     1.09920
C474_C2    C478_C2    1.39507
C474_C2    C470_C2    1.39415
C474_C2    H164_R     1.09920
C475_C2    C479_C2    1.39483
C475_C2    H159_R     1.09920
C475_C2    C471_C2    1.39427
C476_C2    C480_C2    1.39483
C476_C2    H160_R     1.09920
C476_C2    C472_C2    1.39427
C477_C2    C479_C2    1.39393
C477_C2    H153_R     1.09920
C477_C2    C473_C2    1.39507
C478_C2    C480_C2    1.39393
C478_C2    H154_R     1.09920
C478_C2    C474_C2    1.39507
C479_C2    N587_Q     1.30000
C479_C2    C475_C2    1.39483
C479_C2    C477_C2    1.39393
C480_C2    N588_Q     1.30000
C480_C2    C476_C2    1.39483
C480_C2    C478_C2    1.39393
C481_C2    H173_R     1.09920
C481_C2    C491_C2    1.39483
C481_C2    C483_C2    1.39427
C482_C2    H174_R     1.09920
C482_C2    C492_C2    1.39483
C482_C2    C484_C2    1.39427
C483_C2    H181_R     1.09920
C483_C2    C485_C2    1.39537
C483_C2    C481_C2    1.39427
C484_C2    H182_R     1.09920
C484_C2    C486_C2    1.39537
C484_C2    C482_C2    1.39427
C485_C2    C493_C2    1.54094
C485_C2    C487_C2    1.39415
C485_C2    C483_C2    1.39537
C486_C2    C494_C2    1.54094
C486_C2    C488_C2    1.39415
C486_C2    C484_C2    1.39537
C487_C2    C489_C2    1.39507
C487_C2    C485_C2    1.39415
C487_C2    H177_R     1.09920
C488_C2    C490_C2    1.39507
C488_C2    C486_C2    1.39415
C488_C2    H178_R     1.09920
C489_C2    C491_C2    1.39393
C489_C2    C487_C2    1.39507
C489_C2    H171_R     1.09920
C490_C2    C492_C2    1.39393
C490_C2    C488_C2    1.39507
C490_C2    H172_R     1.09920
C491_C2    N589_Q     1.30000
C491_C2    C489_C2    1.39393
C491_C2    C481_C2    1.39483
C492_C2    N590_Q     1.30000
C492_C2    C490_C2    1.39393
C492_C2    C482_C2    1.39483
C493_C2    C497_C2    1.39415
C493_C2    C495_C2    1.39537
C493_C2    C485_C2    1.54094
C494_C2    C498_C2    1.39415
C494_C2    C496_C2    1.39537
C494_C2    C486_C2    1.54094
C495_C2    C499_C2    1.39427
C495_C2    C493_C2    1.39537
C495_C2    H183_R     1.09920
C496_C2    C500_C2    1.39427
C496_C2    C494_C2    1.39537
C496_C2    H184_R     1.09920
C497_C2    H179_R     1.09920
C497_C2    C501_C2    1.39507
C497_C2    C493_C2    1.39415
C498_C2    H180_R     1.09920
C498_C2    C502_C2    1.39507
C498_C2    C494_C2    1.39415
C499_C2    C503_C2    1.39483
C499_C2    C495_C2    1.39427
C499_C2    H175_R     1.09920
C500_C2    C504_C2    1.39483
C500_C2    C496_C2    1.39427
C500_C2    H176_R     1.09920
C501_C2    H169_R     1.09920
C501_C2    C503_C2    1.39393
C501_C2    C497_C2    1.39507
C502_C2    H170_R     1.09920
C502_C2    C504_C2    1.39393
C502_C2    C498_C2    1.39507
C503_C2    N591_Q     1.30000
C503_C2    C501_C2    1.39393
C503_C2    C499_C2    1.39483
C504_C2    N592_Q     1.30000
C504_C2    C502_C2    1.39393
C504_C2    C500_C2    1.39483
C505_C2    C515_C2    1.39483
C505_C2    C507_C2    1.39427
C505_C2    H189_R     1.09920
C506_C2    C516_C2    1.39483
C506_C2    C508_C2    1.39427
C506_C2    H190_R     1.09920
C507_C2    C509_C2    1.39537
C507_C2    C505_C2    1.39427
C507_C2    H197_R     1.09920
C508_C2    C510_C2    1.39537
C508_C2    C506_C2    1.39427
C508_C2    H198_R     1.09920
C509_C2    C517_C2    1.54094
C509_C2    C511_C2    1.39415
C509_C2    C507_C2    1.39537
C510_C2    C518_C2    1.54094
C510_C2    C512_C2    1.39415
C510_C2    C508_C2    1.39537
C511_C2    C513_C2    1.39507
C511_C2    C509_C2    1.39415
C511_C2    H193_R     1.09920
C512_C2    C514_C2    1.39507
C512_C2    C510_C2    1.39415
C512_C2    H194_R     1.09920
C513_C2    H187_R     1.09920
C513_C2    C515_C2    1.39393
C513_C2    C511_C2    1.39507
C514_C2    H188_R     1.09920
C514_C2    C516_C2    1.39393
C514_C2    C512_C2    1.39507
C515_C2    N593_Q     1.30000
C515_C2    C513_C2    1.39393
C515_C2    C505_C2    1.39483
C516_C2    N594_Q     1.30000
C516_C2    C514_C2    1.39393
C516_C2    C506_C2    1.39483
C517_C2    C519_C2    1.39537
C517_C2    C521_C2    1.39415
C517_C2    C509_C2    1.54094
C518_C2    C520_C2    1.39537
C518_C2    C522_C2    1.39415
C518_C2    C510_C2    1.54094
C519_C2    C523_C2    1.39427
C519_C2    H199_R     1.09920
C519_C2    C517_C2    1.39537
C520_C2    C524_C2    1.39427
C520_C2    H200_R     1.09920
C520_C2    C518_C2    1.39537
C521_C2    C517_C2    1.39415
C521_C2    C525_C2    1.39507
C521_C2    H195_R     1.09920
C522_C2    C518_C2    1.39415
C522_C2    C526_C2    1.39507
C522_C2    H196_R     1.09920
C523_C2    C519_C2    1.39427
C523_C2    H191_R     1.09920
C523_C2    C527_C2    1.39483
C524_C2    C520_C2    1.39427
C524_C2    H192_R     1.09920
C524_C2    C528_C2    1.39483
C525_C2    C521_C2    1.39507
C525_C2    C527_C2    1.39393
C525_C2    H185_R     1.09920
C526_C2    C522_C2    1.39507
C526_C2    C528_C2    1.39393
C526_C2    H186_R     1.09920
C527_C2    C523_C2    1.39483
C527_C2    N595_Q     1.30000
C527_C2    C525_C2    1.39393
C528_C2    C524_C2    1.39483
C528_C2    N596_Q     1.30000
C528_C2    C526_C2    1.39393
C529_C2    C531_C2    1.39427
C529_C2    H205_R     1.09920
C529_C2    C539_C2    1.39483
C530_C2    C532_C2    1.39427
C530_C2    H206_R     1.09920
C530_C2    C540_C2    1.39483
C531_C2    C533_C2    1.39537
C531_C2    C529_C2    1.39427
C531_C2    H213_R     1.09920
C532_C2    C534_C2    1.39537
C532_C2    C530_C2    1.39427
C532_C2    H214_R     1.09920
C533_C2    C541_C2    1.54094
C533_C2    C531_C2    1.39537
C533_C2    C535_C2    1.39415
C534_C2    C542_C2    1.54094
C534_C2    C532_C2    1.39537
C534_C2    C536_C2    1.39415
C535_C2    C533_C2    1.39415
C535_C2    C537_C2    1.39507
C535_C2    H209_R     1.09920
C536_C2    C534_C2    1.39415
C536_C2    C538_C2    1.39507
C536_C2    H210_R     1.09920
C537_C2    C535_C2    1.39507
C537_C2    H203_R     1.09920
C537_C2    C539_C2    1.39393
C538_C2    C536_C2    1.39507
C538_C2    H204_R     1.09920
C538_C2    C540_C2    1.39393
C539_C2    C537_C2    1.39393
C539_C2    C529_C2    1.39483
C539_C2    N597_Q     1.30000
C540_C2    C538_C2    1.39393
C540_C2    C530_C2    1.39483
C540_C2    N598_Q     1.30000
C541_C2    C545_C2    1.39415
C541_C2    C543_C2    1.39537
C541_C2    C533_C2    1.54094
C542_C2    C546_C2    1.39415
C542_C2    C544_C2    1.39537
C542_C2    C534_C2    1.54094
C543_C2    C547_C2    1.39427
C543_C2    C541_C2    1.39537
C543_C2    H215_R     1.09920
C544_C2    C548_C2    1.39427
C544_C2    C542_C2    1.39537
C544_C2    H216_R     1.09920
C545_C2    C549_C2    1.39507
C545_C2    C541_C2    1.39415
C545_C2    H211_R     1.09920
C546_C2    C550_C2    1.39507
C546_C2    C542_C2    1.39415
C546_C2    H212_R     1.09920
C547_C2    H207_R     1.09920
C547_C2    C551_C2    1.39483
C547_C2    C543_C2    1.39427
C548_C2    H208_R     1.09920
C548_C2    C552_C2    1.39483
C548_C2    C544_C2    1.39427
C549_C2    H201_R     1.09920
C549_C2    C551_C2    1.39393
C549_C2    C545_C2    1.39507
C550_C2    H202_R     1.09920
C550_C2    C552_C2    1.39393
C550_C2    C546_C2    1.39507
C551_C2    N599_Q     1.30000
C551_C2    C549_C2    1.39393
C551_C2    C547_C2    1.39483
C552_C2    N600_Q     1.30000
C552_C2    C550_C2    1.39393
C552_C2    C548_C2    1.39483
N553_C1    C221_C1    1.39915
N553_C1    C217_C1    1.39888
N554_C1    C222_C1    1.39915
N554_C1    C218_C1    1.39888
N555_C1    C221_C1    1.39888
N555_C1    C219_C1    1.39915
N556_C1    C222_C1    1.39888
N556_C1    C220_C1    1.39915
N557_C1    C217_C1    1.39915
N557_C1    C219_C1    1.39888
N558_C1    C218_C1    1.39915
N558_C1    C220_C1    1.39888
N559_C1    C269_C1    1.39915
N559_C1    C265_C1    1.39888
N560_C1    C270_C1    1.39915
N560_C1    C266_C1    1.39888
N561_C1    C267_C1    1.39915
N561_C1    C269_C1    1.39888
N562_C1    C268_C1    1.39915
N562_C1    C270_C1    1.39888
N563_C1    C267_C1    1.39888
N563_C1    C265_C1    1.39915
N564_C1    C268_C1    1.39888
N564_C1    C266_C1    1.39915
N565_C1    C317_C1    1.39915
N565_C1    C313_C1    1.39888
N566_C1    C318_C1    1.39915
N566_C1    C314_C1    1.39888
N567_C1    C317_C1    1.39888
N567_C1    C315_C1    1.39915
N568_C1    C318_C1    1.39888
N568_C1    C316_C1    1.39915
N569_C1    C315_C1    1.39888
N569_C1    C313_C1    1.39915
N570_C1    C316_C1    1.39888
N570_C1    C314_C1    1.39915
N571_C1    C365_C1    1.39915
N571_C1    C361_C1    1.39888
N572_C1    C366_C1    1.39915
N572_C1    C362_C1    1.39888
N573_C1    C365_C1    1.39888
N573_C1    C363_C1    1.39915
N574_C1    C366_C1    1.39888
N574_C1    C364_C1    1.39915
N575_C1    C363_C1    1.39888
N575_C1    C361_C1    1.39915
N576_C1    C364_C1    1.39888
N576_C1    C362_C1    1.39915
N577_Q     C419_C2    1.30000
N578_Q     C420_C2    1.30000
N579_Q     C431_C2    1.30000
N580_Q     C432_C2    1.30000
N581_Q     C443_C2    1.30000
N582_Q     C444_C2    1.30000
N583_Q     C455_C2    1.30000
N584_Q     C456_C2    1.30000
N585_Q     C467_C2    1.30000
N586_Q     C468_C2    1.30000
N587_Q     C479_C2    1.30000
N588_Q     C480_C2    1.30000
N589_Q     C491_C2    1.30000
N590_Q     C492_C2    1.30000
N591_Q     C503_C2    1.30000
N592_Q     C504_C2    1.30000
N593_Q     C515_C2    1.30000
N594_Q     C516_C2    1.30000
N595_Q     C527_C2    1.30000
N596_Q     C528_C2    1.30000
N597_Q     C539_C2    1.30000
N598_Q     C540_C2    1.30000
N599_Q     C551_C2    1.30000
N600_Q     C552_C2    1.30000
O601_R     C237_C1    1.43000
O601_R     H7_R       1.02108
O602_R     C238_C1    1.43000
O602_R     H8_R       1.02108
O603_R     C225_C1    1.43000
O603_R     H9_R       1.02108
O604_R     C226_C1    1.43000
O604_R     H10_R      1.02108
O605_R     C249_C1    1.43000
O605_R     H11_R      1.02108
O606_R     C250_C1    1.43000
O606_R     H12_R      1.02108
O607_R     C285_C1    1.43000
O607_R     H37_R      1.02108
O608_R     C286_C1    1.43000
O608_R     H38_R      1.02108
O609_R     H39_R      1.02108
O609_R     C273_C1    1.43000
O610_R     H40_R      1.02108
O610_R     C274_C1    1.43000
O611_R     H41_R      1.02108
O611_R     C297_C1    1.43000
O612_R     H42_R      1.02108
O612_R     C298_C1    1.43000
O613_R     H67_R      1.02108
O613_R     C333_C1    1.43000
O614_R     H68_R      1.02108
O614_R     C334_C1    1.43000
O615_R     C321_C1    1.43000
O615_R     H69_R      1.02108
O616_R     C322_C1    1.43000
O616_R     H70_R      1.02108
O617_R     C345_C1    1.43000
O617_R     H71_R      1.02108
O618_R     C346_C1    1.43000
O618_R     H72_R      1.02108
O619_R     C381_C1    1.43000
O619_R     H97_R      1.02108
O620_R     C382_C1    1.43000
O620_R     H98_R      1.02108
O621_R     C369_C1    1.43000
O621_R     H99_R      1.02108
O622_R     C370_C1    1.43000
O622_R     H100_R     1.02108
O623_R     C393_C1    1.43000
O623_R     H101_R     1.02108
O624_R     C394_C1    1.43000
O624_R     H102_R     1.02108
